72
 energy: 5.459881627053 xtb: 6.6.1 (8d0f1dd)
N           -1.47093118497164        3.00345348838670        2.20645080443732
C           -1.57756593950325        2.18047564738901        1.25424870718686
C           -2.76573045817044        2.05992629261096        0.33227877246284
C           -3.31815130799024        0.64692197256663        0.43817979335218
C           -4.30990359537986        0.26364348094054       -0.47166189854132
C           -4.82148775780378       -1.01637699661016       -0.50033508227935
O           -5.76561847894809       -1.46283198490118       -1.37529611928462
C           -6.35701859559170       -0.54388944737257       -2.25516191411038
C           -4.34572020577050       -1.97778907638639        0.41661575702150
O           -4.90888906504214       -3.21503060577431        0.30356580351522
C           -4.55925795487440       -4.19083034239065        1.24801931456105
C           -3.39337405695427       -1.59856837993969        1.34310020788985
C           -2.89175206685640       -0.29762484384164        1.35972507284777
C           -2.18256799714436        2.29304947182788       -1.30245407115811
C           -1.31471134552127        1.11031206085883       -1.69798883130365
C           -0.02083575075902        1.11923591726336       -0.97992658906870
N            0.59818211132559       -0.06842032551955       -0.56884770305002
C            1.96862327694965       -0.06081431662625       -0.16635354026990
C            2.91430217041265       -0.56499763575111       -1.28200015095463
C            4.33605339045891       -0.44747902830294       -0.83957782831390
C            5.04788024754628        0.72183508512852       -1.03564788528828
C            6.35683254844784        0.84178951361331       -0.58837836570416
C            6.97163066300185       -0.20674545136717        0.07320313548627
O            8.25051115653478       -0.20387071289582        0.55223239711431
C            9.03835443354332        0.93884975814840        0.34075427166553
C            6.24670785976990       -1.39954603439180        0.29450227204833
O            6.93285452817673       -2.38008996714622        0.95156636298889
C            6.29852500671829       -3.61252498794279        1.16943030880223
C            4.94367551662208       -1.50051866804908       -0.15696258675927
C           -0.08404291779937       -1.32782397866045       -0.65017763336296
C           -3.89825277797917        3.05989974877973        0.65378753388955
C           -4.44752542264399        2.96302893458341        2.07060958548823
C           -3.40841515882869        4.47530628875560        0.40825916372519
H           -4.67597776731508        0.99124891922795       -1.17546759204227
H           -6.84208478269677        0.27905849984542       -1.72070771325590
H           -7.11074653592767       -1.10635914487609       -2.80311515100253
H           -5.62752635205261       -0.13780947550609       -2.96371506381509
H           -4.79677687365952       -3.87027911205973        2.26618393212591
H           -5.15756019130381       -5.06425569378689        0.99451902820936
H           -3.49622660425607       -4.44795150084336        1.19247194353454
H           -3.02423058252161       -2.30746466313783        2.06633402433418
H           -2.15859449516063       -0.05139283415397        2.11276835323940
H           -2.97263065620353        2.39452217277368       -2.06111685236030
H           -1.56390593625461        3.19247547131763       -1.39476541481053
H           -1.89876752086436        0.22561506060641       -1.45896965201585
H           -1.15422516504412        1.14663628800058       -2.79218722489023
H           -0.76388962375568        1.51335150735507        0.93477624730135
H            0.62681351326204        1.97867254431134       -1.05211923455680
H            2.08552611239079       -0.69544360706501        0.72509139798934
H            2.26019804640006        0.96230884939798        0.09814151377627
H            2.74173998639880        0.04832044720855       -2.16846615177107
H            2.66172171727872       -1.59871418704672       -1.51441737618714
H            4.59107581041863        1.55310720010618       -1.55263017235308
H            6.89084634563553        1.76139610113618       -0.77080712980007
H            8.61262968120118        1.81955739840041        0.83298669139592
H            9.17409713789585        1.15120096752539       -0.72615253721785
H           10.00536869901289        0.71160708439269        0.78697154431925
H            7.03747483638336       -4.23434031598328        1.67304553327109
H            5.41741900916082       -3.50629630617373        1.81179215268154
H            6.00478826882371       -4.09203026580682        0.22888625896995
H            4.37921681904610       -2.40557606915770        0.00280087878005
H           -0.25061073025877       -1.64030521949715       -1.68665405376705
H           -1.05390976716203       -1.26051581553169       -0.15009427331556
H            0.51438917310060       -2.08581195147545       -0.14626720133879
H           -4.74143999456117        2.86121249549703       -0.01885206867173
H           -3.66233598220022        3.18010136361145        2.78320211096852
H           -4.85012464146202        1.97917041149899        2.28081521896647
H           -5.25424148830790        3.68603125793710        2.18164019092366
H           -2.58527928688391        4.68080751731797        1.08624594674647
H           -3.06620360563450        4.58321557558634       -0.61317709252297
H           -4.22150064509087        5.17189001550689        0.58482424301011
H           -0.55077729176789        2.96691645473137        2.64354964092910
