72
 energy: 54.401451064696 xtb: 6.6.1 (8d0f1dd)
N           -1.31038370664546        3.37245381872991        2.01740604896228
C           -1.74111976435202        2.17850207849214        1.77857520604506
C           -3.01786425351663        1.91806050148138        1.25277466043708
C           -3.40759790467191        0.57217520500305        0.94895269027314
C           -4.33703653376636        0.28712185904365       -0.08073759740303
C           -4.71286031347595       -1.00039872322666       -0.39359807334415
O           -5.57648750793940       -1.34866902277763       -1.39503211870603
C           -6.23047421575051       -0.33169469454238       -2.10762506607522
C           -4.18241766350869       -2.08854114448264        0.33625722088372
O           -4.61662541642225       -3.32938333864869       -0.04828627439706
C           -4.20823861881922       -4.44492130326358        0.69515908448802
C           -3.27504188616175       -1.82742230028677        1.35079270636252
C           -2.89172622233779       -0.53151781299322        1.64650687240046
C           -1.82974911179141        2.35169476551502       -2.35111687815437
C           -1.36627692367161        1.05746497084460       -1.85226162206020
C           -0.05518205042747        1.01806770211576       -1.21001747088941
N            0.49235340762954       -0.08019185939436       -0.67374686868773
C            1.85069469730651       -0.06416524220763       -0.19405417117100
C            2.82964924947029       -0.58368400377219       -1.26680585097517
C            4.24950058214179       -0.45459460965060       -0.79732964453047
C            4.95275330583227        0.71649892696229       -1.00106452721554
C            6.26028028707782        0.84636708237853       -0.55415451302039
C            6.88227598789896       -0.19571069960480        0.10895546132656
O            8.15595155111287       -0.18378894151612        0.58492147558269
C            8.93323102828911        0.97247525940066        0.40290846481414
C            6.17008376571519       -1.39787411304221        0.32638648811483
O            6.86590490282932       -2.36823466944577        0.97880584549367
C            6.24782136390781       -3.60759322271663        1.21180110788562
C            4.86800623977750       -1.50766202969412       -0.12470007924160
C           -0.19435414511431       -1.34011674243769       -0.74106635391550
C           -3.99438358885758        3.05232667866809        1.07243625852640
C           -4.28791999813484        3.70668131316996        2.42911486147345
C           -3.46610146485868        4.10129474511726        0.09464865701790
H           -4.74234037653645        1.10872596488761       -0.64795215175790
H           -6.82085790309490        0.31255244276975       -1.44918587116640
H           -6.89886905260678       -0.84681829973173       -2.79720565332260
H           -5.52888617955467        0.28415434867980       -2.68105486055278
H           -4.51185164327350       -4.36834518924594        1.74539649263178
H           -4.71412086468143       -5.29569148863862        0.24114154516661
H           -3.12364251215280       -4.60107224800643        0.64189037447334
H           -2.86769097843102       -2.63680266037877        1.93848249518133
H           -2.21840589685121       -0.37031719160018        2.47264235541464
H           -2.71026005290742        2.40692210895135       -2.95604477873036
H           -1.18997784940292        3.20571284517987       -2.29664324485212
H           -2.11546244920497        0.64984636163945       -1.14892057107595
H           -1.38380766008252        0.32500793327500       -2.67142942833333
H           -1.08874670558693        1.29607845171322        1.90537950317781
H            0.50466056435495        1.93423426619491       -1.10435921546360
H            1.92850163427910       -0.68397916947318        0.70372145898101
H            2.12594526626221        0.95790615282492        0.07405920342494
H            2.68714049998929        0.00240100962821       -2.17681101802215
H            2.60100677260513       -1.62710959740054       -1.49077659448368
H            4.49094085337210        1.54094958356849       -1.52327058844593
H            6.78594302007432        1.76954415388720       -0.73713309771366
H            8.48532976048546        1.84432434949583        0.89150733469318
H            9.09039934497954        1.19216222288483       -0.65848716808583
H            9.89185235122402        0.75250280304551        0.86991602381029
H            6.99490266366020       -4.21262951457980        1.72330701488475
H            5.36546048510003       -3.50765932992552        1.85313819270278
H            5.96386431238802       -4.10121139119917        0.27615016807616
H            4.31676124055114       -2.42233901847396        0.03106036027213
H           -0.35285688724820       -1.65112657058007       -1.78000660262411
H           -1.17294964415430       -1.26632655021159       -0.25661883774908
H            0.39184813275883       -2.10121509554122       -0.23304858287225
H           -4.94024098091531        2.65043422050859        0.69129917401398
H           -3.37875398580753        4.13146594688535        2.83823826265324
H           -4.68680955177842        2.98046647428510        3.13723741054328
H           -5.02134922583435        4.50005188004255        2.30281139437246
H           -2.56721477258587        4.54843958519835        0.50487739707962
H           -3.21195361277670        3.63359002739043       -0.85614055685108
H           -4.20829408752358        4.87900054205986       -0.06957904348579
H           -0.35092706512303        3.41113336612979        2.35166641237684
