72
 energy: 37.931843305994 xtb: 6.6.1 (8d0f1dd)
N           -1.45027430987846        3.17762301683942        2.16156602175041
C           -1.61647078053267        2.21294887990271        1.34397455338997
C           -2.81944962411041        2.02574642535397        0.52562034716977
C           -3.33149695404904        0.63641513715785        0.54447686979301
C           -4.31785241970538        0.27245334041831       -0.38528263816745
C           -4.79954376274406       -1.01366982563971       -0.47514491364042
O           -5.72587876552886       -1.43832636880253       -1.38036302842109
C           -6.32713869449916       -0.49171975125977       -2.22075453645808
C           -4.30343111228601       -2.00677725591179        0.39415205606594
O           -4.84294787226664       -3.25141465943569        0.21919022108585
C           -4.47546439431230       -4.25941571542830        1.11869715344914
C           -3.36583049097311       -1.65051400396752        1.34646157674298
C           -2.89231170842595       -0.34455645339940        1.42754169056799
C           -2.12768889066564        2.31478873846630       -1.52218788769968
C           -1.34754428412714        1.06015328617331       -1.73303591929471
C           -0.03490747273191        1.07552762183755       -1.06547024965294
N            0.56077492483589       -0.07915218705193       -0.59135587737785
C            1.93503788295544       -0.07211597012829       -0.17485138593071
C            2.88971632187172       -0.57584195821247       -1.28277964254436
C            4.31398437332254       -0.45523633175641       -0.83308071059265
C            5.02334911507020        0.71659144201055       -1.02782271687953
C            6.33188576853084        0.84237662202834       -0.57804102920265
C            6.94948117366219       -0.20487374524400        0.08277822444580
O            8.22670200092424       -0.19793636677435        0.56496155675859
C            9.01292304002187        0.94663034331402        0.35640470452582
C            6.22715199915575       -1.39888612985583        0.30496611105418
O            6.91564733958856       -2.37708064611775        0.96474059650422
C            6.28530700174389       -3.61074139194708        1.18242402816928
C            4.92473441613501       -1.50615501994238       -0.14936755628786
C           -0.11369141473866       -1.34538949657322       -0.67581855014169
C           -3.92830179672932        3.05099313050344        0.73329999659962
C           -4.41264588897768        3.12398243838573        2.17219724418817
C           -3.42608485009358        4.41822340804201        0.30014951750927
H           -4.68860130568228        1.02500695028423       -1.05983146835985
H           -6.83740480081722        0.29272674695143       -1.65324745847042
H           -7.06108743929545       -1.04110188309117       -2.80768831681873
H           -5.59827395283787       -0.03414866663493       -2.89765306683829
H           -4.72701064055709       -3.99590955990645        2.14949992219398
H           -5.04816318645757       -5.13560637503654        0.81974811350382
H           -3.40552199087576       -4.48667456782006        1.06187443572880
H           -2.98803667384475       -2.38209295153359        2.04033295462616
H           -2.17155704844539       -0.11616859161356        2.19690489822987
H           -2.92350632784340        2.40619281681113       -2.26544518384501
H           -1.46956670593307        3.16866957521288       -1.58831893996534
H           -1.96920293636979        0.26466438209044       -1.32681954263690
H           -1.24884413791519        0.93230567105702       -2.82537737701531
H           -0.84510009695831        1.44238919499089        1.18970673853120
H            0.61124702557741        1.94778985674520       -1.13946931213473
H            2.04457540868343       -0.69987131439752        0.71755631926913
H            2.22311179676429        0.95216591864248        0.09040939715741
H            2.72260820337862        0.03484902827912       -2.17081723967071
H            2.64480736298325       -1.61230311507772       -1.51354303772115
H            4.56590805701468        1.54553690545217       -1.54677642043892
H            6.86375663977982        1.76433168375698       -0.75772313792614
H            8.58211205873079        1.82630505223806        0.84597424855746
H            9.15397883373153        1.16033246168676       -0.70976388250696
H            9.97968266194702        0.72613502483340        0.80713103916159
H            7.02479488660925       -4.23092780050564        1.68761250384573
H            5.40278618269060       -3.50618642034668        1.82295967333132
H            5.99389642327622       -4.09280368670220        0.24236240385347
H            4.36150458586794       -2.41132825580699        0.00927240938516
H           -0.27594454275862       -1.65346982838752       -1.71337340375030
H           -1.08470319149990       -1.27534581297452       -0.18161072311498
H            0.47811368779736       -2.10737694141169       -0.16912825811903
H           -4.80552186793633        2.78735962158176        0.13157265271053
H           -3.59228299897300        3.40517058381855        2.81632184337625
H           -4.82565734219993        2.18150579138343        2.51470452443508
H           -5.19857805019256        3.87284731698788        2.21931008995363
H           -2.58019666358344        4.67193996984301        0.93265531278719
H           -3.10062741206740        4.37433709903686       -0.73060474169158
H           -4.21865851919600        5.15102753545705        0.40448404461448
H           -0.52534578940538        3.13304866085743        2.58619843581416
