72
 energy: 50.062704915315 xtb: 6.6.1 (8d0f1dd)
N           -1.39810905818562        3.22417129506637        2.12539157110593
C           -1.64018799513608        2.19166050767805        1.41223138282433
C           -2.85791434635752        1.99977933873522        0.67582141943707
C           -3.34681225176510        0.63060970638007        0.60767893333869
C           -4.32302690095769        0.27823729523596       -0.34120678197247
C           -4.78528315634477       -1.01161091379355       -0.46406542318876
O           -5.70592300305498       -1.42467788198242       -1.38114251157819
C           -6.31250165707986       -0.46540772297187       -2.20321713495730
C           -4.28163612329389       -2.02207354815484        0.38063560651046
O           -4.80918694669779       -3.26945441607118        0.17660637209038
C           -4.43397223996269       -4.29310781027066        1.05407724295050
C           -3.34837208535442       -1.68005767545517        1.34362495297218
C           -2.89178121543612       -0.37459719603310        1.46091855181197
C           -2.07890919108812        2.33786320533507       -1.67637194169704
C           -1.36479229463116        1.04177366465462       -1.74485926139871
C           -0.03796868278935        1.03919426493130       -1.10675035011554
N            0.54901402406733       -0.08410843689928       -0.61483194666328
C            1.92337631476313       -0.07353638387277       -0.17912258002278
C            2.87856314180164       -0.57882974407525       -1.28054937471488
C            4.30338980396927       -0.45487193291351       -0.82419560425192
C            5.01100560055272        0.71698007675153       -1.02200075531389
C            6.31981824565086        0.84458042917812       -0.57232279467596
C            6.93783853104385       -0.20336348419123        0.08784990035117
O            8.21433103118655       -0.19559481201462        0.56808445689070
C            9.00036797291695        0.95085573954429        0.36437134817087
C            6.21811915688905       -1.40028115205640        0.31020785017569
O            6.90665603817750       -2.37605960974244        0.96813646848645
C            6.27783455700035       -3.61048855623336        1.18820981478084
C            4.91504731496479       -1.50744795949107       -0.14349083538883
C           -0.12481064494933       -1.35712364462924       -0.68685307994963
C           -3.93923670002561        3.05139305501624        0.78404351112139
C           -4.39696697178823        3.21341174910202        2.22256800609978
C           -3.43266173177305        4.38186740742610        0.25458939922633
H           -4.69476389580187        1.04346317385444       -1.00117513399958
H           -6.83435796007359        0.30026068061396       -1.62058163221729
H           -7.03688262391624       -1.00808741912521       -2.80852182716964
H           -5.58483210114831        0.01656375003231       -2.86480393237984
H           -4.69175064010409       -4.05718731832045        2.09017780162659
H           -4.99445474344229       -5.17005492294880        0.73321146986330
H           -3.36083571673601       -4.50611643870674        0.99682086585408
H           -2.96823496523630       -2.42197713033601        2.02434614164122
H           -2.17835054351967       -0.15259178231222        2.23858082428033
H           -2.89612331557248        2.41330252172798       -2.38503225512726
H           -1.41869292966440        3.18385362337588       -1.70318676096907
H           -2.01356536428041        0.30552373774885       -1.26437520959762
H           -1.29319517491865        0.81465753466284       -2.82304735484099
H           -0.89349084486745        1.37336796691265        1.31347480465782
H            0.58210879198982        1.93254511795107       -1.14690447582822
H            2.02345221888056       -0.69958297294644        0.71222494809696
H            2.20613928296233        0.94996774009695        0.08852691912357
H            2.71545785854248        0.02768546449260       -2.17341121919836
H            2.63736094278878       -1.61733779858765       -1.50970952500389
H            4.55299515611374        1.54438163277250       -1.54279881266352
H            6.85036030462970        1.76702699557399       -0.75245611788895
H            8.56656270054840        1.82935574198997        0.85303295294013
H            9.14417766156263        1.16550635986184       -0.70129691404267
H            9.96676419582298        0.73334250441026        0.81787159228249
H            7.01740231099204       -4.22960848836276        1.69465994614183
H            5.39463869200505       -3.50552713045008        1.82768762220268
H            5.98737606966456       -4.09328729037894        0.24839836689277
H            4.35475797072993       -2.41538182724810        0.01286614600556
H           -0.28756694985338       -1.66129285894187       -1.72534211821644
H           -1.09789447323978       -1.28211450797060       -0.19560760225539
H            0.46398151162497       -2.12088217113417       -0.17916447838720
H           -4.82601369615545        2.75616379111827        0.21407597268915
H           -3.55698095061911        3.51875552775438        2.83013782968992
H           -4.80718463607674        2.29329018029772        2.62174462590661
H           -5.17513108766137        3.96965070130031        2.24288718900195
H           -2.57375657855443        4.67002484004876        0.85541242727743
H           -3.12503499200574        4.25949783238903       -0.77395210563370
H           -4.21386344679125        5.13290896848275        0.31616634679383
H           -0.49532683371415        3.21136406584052        2.58073736015590
