72
 energy: 45.313269849818 xtb: 6.6.1 (8d0f1dd)
N           -1.42331310196069        3.20229966566869        2.14287279859461
C           -1.62910450742376        2.20202453777532        1.37704486199585
C           -2.84028310561105        2.01190471876961        0.60433361954812
C           -3.33985342329590        0.63406560227353        0.57668717216699
C           -4.32036688380383        0.27550504570712       -0.36297964693060
C           -4.79267528571898       -1.01242804608919       -0.46896253788147
O           -5.71567794238877       -1.43135662941512       -1.38084565502065
C           -6.31947315111415       -0.47847909712589       -2.21216556341105
C           -4.29243089006473       -2.01451717355619        0.38745041435911
O           -4.82648638925015       -3.26100083745318        0.19748995286906
C           -4.45494012821544       -4.27642340496678        1.08625035472714
C           -3.35681644288629       -1.66537987452263        1.34515394775947
C           -2.89290922385386       -0.35922881435646        1.44527084174891
C           -2.10288098758950        2.32734889748142       -1.60206231974613
C           -1.35585661369660        1.05068301991413       -1.74160773196149
C           -0.03520289680545        1.05771126279684       -1.08895734423369
N            0.55554463755505       -0.08052643451852       -0.60381150183762
C            1.93123551546036       -0.07453879459878       -0.17543578067659
C            2.88435098907087       -0.57777180134859       -1.28133556902441
C            4.30905122821181       -0.45519597219645       -0.82843911239720
C            5.01719564818155        0.71676356264915       -1.02480879870669
C            6.32588762723775        0.84341688813447       -0.57511515130220
C            6.94361688976340       -0.20419755569608        0.08527677326178
O            8.22038729842787       -0.19671750936927        0.56658286113753
C            9.00659052359306        0.94873407231777        0.36025532303417
C            6.22266095111171       -1.39965955461507        0.30786758163881
O            6.91108791715366       -2.37663630055092        0.96672646642454
C            6.28146531021964       -3.61055571572891        1.18548580538035
C            4.92004172889768       -1.50708176989095       -0.14628708144221
C           -0.11924412699814       -1.35051325974096       -0.68127750414367
C           -3.93495701815753        3.05053344437210        0.75909156812083
C           -4.40586597426846        3.16793163443676        2.19875746000426
C           -3.42929116361240        4.39981553622579        0.27700283285377
H           -4.69124387001223        1.03439558346597       -1.03035813010197
H           -6.83569959398078        0.29665141044576       -1.63711958790826
H           -7.04861945891835       -1.02475076317606       -2.80823386921572
H           -5.59116500086664       -0.00864744777123       -2.88163548618483
H           -4.70937600964828       -4.02650916004142        2.11984921573459
H           -5.02167861667758       -5.15304071209799        0.77646494484069
H           -3.38333625571936       -4.49653475143701        1.02923010270656
H           -2.97792730192965       -2.40220095772080        2.03260011311663
H           -2.17491677335507       -0.13413397130448        2.21816488505162
H           -2.91023847482038        2.41086065449567       -2.32672988152427
H           -1.44283831346944        3.17546757561416       -1.64647319652849
H           -1.99064909349135        0.28419743453836       -1.29555908535261
H           -1.27293896673689        0.87458013654717       -2.82842645894042
H           -0.86912944316725        1.40889944801385        1.25155490481533
H            0.59876202413234        1.94196390763794       -1.15535186883728
H            2.03411077224418       -0.70089814060263        0.71594445977462
H            2.21511781136359        0.95029693616714        0.09018242423041
H            2.71874616211528        0.03123912373450       -2.17139058324223
H            2.64116450524974       -1.61509078767619       -1.51119765105432
H            4.55938972737771        1.54457713792705       -1.54490834986989
H            6.85715764384582        1.76556453101955       -0.75490648915756
H            8.57436184912198        1.82790443381038        0.84930754588890
H            9.14905105377676        1.16285298940789       -0.70566513227300
H            9.97314916676321        0.72967873031206        0.81236175009546
H            7.02099513661214       -4.23019411622002        1.69130740448629
H            5.39858634174373       -3.50580562215540        1.82544707333180
H            5.99057013266531       -4.09296892143597        0.24551393747578
H            4.35807062189353       -2.41345288215887        0.01111820341496
H           -0.28167500800398       -1.65765202252470       -1.71899666441343
H           -1.09119563477723       -1.27829204728070       -0.18864733950127
H            0.47080865811482       -2.11335219620121       -0.17388824851317
H           -4.81680998782961        2.77099066035972        0.17240391945866
H           -3.57512732091511        3.46176937669988        2.82437841603564
H           -4.81811228833063        2.23602781616535        2.57091915680879
H           -5.18736159772181        3.92122494454356        2.23103002367509
H           -2.57693023090918        4.66978868166315        0.89447657141419
H           -3.11134087268946        4.31758612589039       -0.75354426144162
H           -4.21596864330947        5.14223413457695        0.36028836558514
H           -0.50970545735495        3.17259289902829        2.58191518479527
