72
 energy: 54.833522865562 xtb: 6.6.1 (8d0f1dd)
N           -1.35261535921322        3.28908215712744        2.07443308421624
C           -1.66178147121401        2.19480482009602        1.48194020266289
C           -2.88896562816019        1.98376642669042        0.79960945703998
C           -3.35098037325734        0.62221846125827        0.66617517573592
C           -4.32388035453059        0.28242673108611       -0.29750472279344
C           -4.77025677678449       -1.00987434205917       -0.45346756855659
O           -5.68531510098284       -1.41128538984843       -1.38186990244404
C           -6.29901764491115       -0.43976029095891       -2.18530591610111
C           -4.26138472887365       -2.03648301643057        0.36939929214341
O           -4.77265558103489       -3.28300736110187        0.13649685625324
C           -4.39159828821334       -4.32549471750577        0.98979830187224
C           -3.33306879158197       -1.70824406759805        1.34218446780223
C           -2.88327634618945       -0.40610653552014        1.48818605328103
C           -2.03161475782470        2.34859791659852       -1.80928658956602
C           -1.37902964824194        1.02528801295692       -1.73939333128113
C           -0.04274240778294        1.01211629503049       -1.13492235771043
N            0.53767063473668       -0.08922252761629       -0.63319211802144
C            1.90778256234473       -0.07304583021026       -0.18484578255538
C            2.86752806541433       -0.58205178603844       -1.27769363800210
C            4.29186268267150       -0.45523616122330       -0.81671326557243
C            4.99897391736049        0.71592742933524       -1.01728512766261
C            6.30777680272104        0.84477811098716       -0.56738685101500
C            6.92776100426879       -0.20185924069582        0.09466660536936
O            8.20369215239538       -0.19324121603600        0.57086525110376
C            8.98851756428956        0.95575087340542        0.37224557232123
C            6.20947063480053       -1.40153047800292        0.31456065175003
O            6.89830607954832       -2.37476292236282        0.97102953355604
C            6.27102313610493       -3.61027597937602        1.19438800544505
C            4.90556623634672       -1.50791844506257       -0.13852333088601
C           -0.13629133250072       -1.36488710884863       -0.69933588338811
C           -3.94807020352917        3.05724070429862        0.82976995560256
C           -4.37731671331421        3.30347637134267        2.26439840346037
C           -3.44108005293737        4.34669102018551        0.20671649762124
H           -4.70269090516639        1.05931973610522       -0.94149755155743
H           -6.83233723995219        0.30581866558143       -1.58755464831233
H           -7.01314939439426       -0.97540473125265       -2.80905739647775
H           -5.57286079477016        0.06618090865534       -2.82991082691126
H           -4.65685317415445       -4.11867178351738        2.03023449474441
H           -4.93976107221165       -5.20167356447819        0.64528144890125
H           -3.31587002720939       -4.52490905886053        0.93194187869862
H           -2.95068726963049       -2.46074585198468        2.00878843757155
H           -2.18464347265535       -0.18957404781222        2.27949730573920
H           -2.86326152836234        2.41344639118320       -2.49324870742239
H           -1.37407200013390        3.19447830286991       -1.80883251173206
H           -2.05609127239568        0.34855056629143       -1.20109676956888
H           -1.31506290233939        0.69976233832001       -2.79040469008038
H           -0.94579759897566        1.35228856588736        1.43173834118951
H            0.55346122922337        1.91609581955594       -1.12953203909217
H            2.00220409003399       -0.69814706228031        0.70721955520443
H            2.18998245903038        0.94760629139532        0.08519379727317
H            2.70925132382668        0.01924374943075       -2.17490344573900
H            2.62931374790647       -1.62234244963044       -1.50733789407945
H            4.54049897130979        1.54277614139956       -1.53928840744960
H            6.83661233930378        1.76805162485253       -0.74799515822485
H            8.55120478632303        1.83236200187717        0.86044491492076
H            9.13470386779391        1.17098441215113       -0.69292951971493
H            9.95402328899900        0.73991116593913        0.82852384234499
H            7.01085130471421       -4.22776782238316        1.70221282442015
H            5.38751885038294       -3.50478609696060        1.83341479758805
H            5.98149864868496       -4.09422967963445        0.25520663634224
H            4.34800431722305       -2.41856255852664        0.01641096927665
H           -0.29989090301286       -1.66348008553111       -1.73947679720056
H           -1.11109508580164       -1.28641032293347       -0.20993031477772
H            0.44944452712250       -2.13293548340362       -0.19230574740525
H           -4.84648224500232        2.73007784267443        0.29727657145767
H           -3.52122683242169        3.63301963106817        2.83495410423456
H           -4.78106672750197        2.40871870046299        2.72174339796913
H           -5.14909555146974        4.06444885598920        2.26624601731297
H           -2.57134847741510        4.67108861268072        0.77589283970807
H           -3.15139208265351        4.14867678948000       -0.81709093464840
H           -4.21360895323924        5.11197946101970        0.22726013665732
H           -0.47084454914311        3.28882837806135        2.57292351521682
