72
 energy: 53.016981909626 xtb: 6.6.1 (8d0f1dd)
N           -1.37552259903800        3.25434989268779        2.10083813522593
C           -1.65092456044072        2.18828775046716        1.44776835614783
C           -2.87360258202537        1.99049598114664        0.74026250610750
C           -3.34995292537981        0.62653627378253        0.63708461345113
C           -4.32419155016587        0.28047733368509       -0.31964225325460
C           -4.77664517992676       -1.01117746107418       -0.46032184931745
O           -5.69568517012536       -1.41829007976565       -1.38187413843071
C           -6.30579988741202       -0.45279066099131       -2.19437427865809
C           -4.27103444001087       -2.02940320664174        0.37429955338896
O           -4.79075339607731       -3.27683845202324        0.15629741108440
C           -4.41274329418410       -4.30947684876536        1.02200537744177
C           -3.34044955284922       -1.69426463611445        1.34245325634134
C           -2.88833294124580       -0.39029580541847        1.47509628820920
C           -2.05545847314953        2.34481647683918       -1.74506095617437
C           -1.37238982731382        1.03306550699124       -1.74391133168641
C           -0.03967809412331        1.02316699100073       -1.12190826321436
N            0.54349104720000       -0.08744133425589       -0.62456301223861
C            1.91581069511583       -0.07302573585775       -0.18238071640629
C            2.87306708196481       -0.58029628462916       -1.27951152044200
C            4.29768897951703       -0.45493042037577       -0.82033247729820
C            5.00487253697471        0.71668266129360       -1.01955479548903
C            6.31365182065285        0.84501341655954       -0.56979114366761
C            6.93221399748994       -0.20259606593709        0.09111051546937
O            8.20866286809754       -0.19446851958448        0.56937371633599
C            8.99434084387712        0.95309155923982        0.36831444851063
C            6.21368430001330       -1.40101485579260        0.31246622712851
O            6.90236456627263       -2.37537593358833        0.96972609299296
C            6.27432240553180       -3.61035243454338        1.19130881076063
C            4.91020910309360       -1.50790275667587       -0.14098127292584
C           -0.13011496396210       -1.36242981101215       -0.69256464724371
C           -3.94313819652739        3.05472171670881        0.80689174008215
C           -4.38721017519854        3.25914728298157        2.24376512337442
C           -3.43623531659407        4.36504907451107        0.23015149622748
H           -4.69849525290266        1.05189315926312       -0.97169780803226
H           -6.83316527034778        0.30305527516460       -1.60414258797664
H           -7.02524367162004       -0.99181223248349       -2.80891564860545
H           -5.57895942703822        0.04121172341923       -2.84754081445019
H           -4.67422344763914       -4.08779963023672        2.06032983729054
H           -4.96687009343409       -5.18646766197891        0.68977553865945
H           -3.33824716478219       -4.51563597499368        0.96450107417763
H           -2.95928870815385       -2.44143946354488        2.01616006485977
H           -2.18189396150793       -0.17102061912900        2.25928886370826
H           -2.88071406908263        2.41396032969574       -2.44016984123472
H           -1.39587885625028        3.19039545254578       -1.75713356434529
H           -2.03518829669339        0.32702898087770       -1.23336920661730
H           -1.30690699492992        0.75633852498570       -2.81084629914860
H           -0.91755493686741        1.35113987048706        1.37426380666196
H            0.56735055901970        1.92322231690180       -1.13674438334899
H            2.01313712832500       -0.69862369447897        0.70907950047298
H            2.19782920669468        0.94913641292483        0.08678000639340
H            2.71227376953889        0.02361481505385       -2.17464348732446
H            2.63349009264398       -1.61983713185242       -1.50870934908248
H            4.54670435273338        1.54386720347448       -1.54097918763031
H            6.84351791635096        1.76773447029834       -0.75021023396496
H            8.55891127377370        1.83079939123020        0.85667307939182
H            9.13946656137635        1.16818516130302       -0.69709657109622
H            9.96045067666733        0.73676523099588        0.82320300583470
H            7.01390644573838       -4.22888516204568        1.69841497439959
H            5.39089802852623       -3.50510103785409        1.83043641497532
H            5.98430690785445       -4.09363203361755        0.25174958895463
H            4.35145751908344       -2.41724513825658        0.01464861319651
H           -0.29356268113876       -1.66301010836314       -1.73209256404617
H           -1.10430494719117       -1.28462060353442       -0.20265659339981
H            0.45717797812254       -2.12804693390778       -0.18504769771455
H           -4.83590354512980        2.74275379006994        0.25557051773379
H           -3.53901576407178        3.57625125072249        2.83290734397681
H           -4.79421349248715        2.35131855276355        2.67069704877659
H           -5.16238308318118        4.01742853585591        2.25580315708708
H           -2.57180809308805        4.67098545790191        0.81551425039582
H           -3.13779888539401        4.20419555850519       -0.79654517174820
H           -4.21300689669218        5.12394087426432        0.27107932358799
H           -0.48476014740901        3.25053098723182        2.57932314347903
