72
 energy: 19.146302847322 xtb: 6.6.1 (8d0f1dd)
N           -1.46706186017272        3.09942343178585        2.18312458358716
C           -1.58888555418598        2.22004956892687        1.28038238224344
C           -2.78381262806385        2.04888986666448        0.39401719658980
C           -3.31889807199922        0.64103777318949        0.48551995252345
C           -4.31353295959051        0.26785573736652       -0.42888341542000
C           -4.81149489382278       -1.01534716309425       -0.48760741739284
O           -5.74549527899152       -1.45181659170429       -1.37854542476296
C           -6.34200847405115       -0.51784574322937       -2.23785454810637
C           -4.32510199791871       -1.99203213821553        0.40649124826762
O           -4.87570259253641       -3.23303395793858        0.26206315417540
C           -4.51712524271620       -4.22621920991731        1.18363145497868
C           -3.38169306617209       -1.62247237471535        1.34653455553369
C           -2.89117573172217       -0.31836181261739        1.39213895718272
C           -2.16330803405389        2.29876282451008       -1.38471982737132
C           -1.33293468137815        1.08202519495966       -1.71006082891368
C           -0.03010012376964        1.10438565300923       -1.02019554426509
N            0.57856335917875       -0.07686699261784       -0.57262611574818
C            1.95044947759762       -0.06635518123715       -0.17054209549531
C            2.90228108356221       -0.57076411983111       -1.28351074144281
C            4.32471905258654       -0.45213020384207       -0.83878428235049
C            5.03650908960671        0.71811442582913       -1.03300327904738
C            6.34493206221386        0.84146426632561       -0.58350797678126
C            6.96124060087117       -0.20610188443263        0.07831215093771
O            8.23960938771928       -0.20105144600032        0.56066279780719
C            9.02577608156153        0.94252747929646        0.34869981521856
C            6.23710935511458       -1.39896615110805        0.29922724723302
O            6.92486539044867       -2.37875218075430        0.95879953238884
C            6.29280160498741       -3.61186531269561        1.17602174377938
C            4.93439059551576       -1.50319186374620       -0.15434563511124
C           -0.09952229814566       -1.33630895490712       -0.66317052649325
C           -3.91114557444512        3.05445691434643        0.68948554961740
C           -4.42761250108949        3.04051247395686        2.12095860793408
C           -3.41804558978854        4.45034167287140        0.35361122851692
H           -4.68423437775511        1.00711451389467       -1.11820531503094
H           -6.83981514827685        0.28580182555697       -1.68608706705429
H           -7.08578165491898       -1.07336985366984       -2.80603988880137
H           -5.61224084872871       -0.08531549622795       -2.93010082107563
H           -4.76228373499690       -3.93453705846411        2.20834804735122
H           -5.10260209206296       -5.10107409962639        0.90648232429993
H           -3.45051666036713       -4.46773332242978        1.12736728479669
H           -3.00667789762013       -2.34264672654838        2.05452740961435
H           -2.16492274022635       -0.08160844714754        2.15387227111045
H           -2.94885106933075        2.39385947129240       -2.14827079655799
H           -1.52160740041506        3.17744666043993       -1.48509302832796
H           -1.93445058064399        0.23634740184034       -1.39139583173905
H           -1.20138633246263        1.04011339498159       -2.80535761123019
H           -0.80070904831328        1.48970367737696        1.05958762388316
H            0.62051237505242        1.96324998788421       -1.09772865312130
H            2.06769122788377       -0.69751889915243        0.72323841851786
H            2.24168658878909        0.95721352050667        0.09220575266615
H            2.73117113210200        0.04183440149736       -2.16965911273518
H            2.65315991580257       -1.60581443850025       -1.51479290920165
H            4.57950083004579        1.54899458937972       -1.55034328705123
H            6.87784110217348        1.76251764965128       -0.76406313986262
H            8.59730133198201        1.82280579551183        0.83930691950845
H            9.16348608131143        1.15525702309988       -0.71810756304185
H            9.99289569118825        0.71911218236711        0.79678440117080
H            7.03226519995044       -4.23280121357419        1.68022319967632
H            5.41101126529552       -3.50694550654439        1.81762395677297
H            6.00019877138987       -4.09279714761746        0.23575155645849
H            4.36995647779865       -2.40776814756164        0.00562000682078
H           -0.26387998973194       -1.64493171944607       -1.70090434117786
H           -1.07003183539429       -1.26913691224933       -0.16607382502174
H            0.49416653279538       -2.09915909958268       -0.15916457174892
H           -4.77360191501173        2.82458692859941        0.05512353454270
H           -3.62583517641245        3.29170365255018        2.80170119826150
H           -4.83753617049070        2.07666378945269        2.39867677242316
H           -5.22576338870315        3.77686488304489        2.20064386272583
H           -2.58408441793516        4.67794142802630        1.01019003187403
H           -3.08312018653745        4.48226640469660       -0.67356442656760
H           -4.22119990160334        5.16389865718318        0.49557399776631
H           -0.53621521433028        3.04362186740159        2.59631030649298
