72
 energy: -4.900353914126 xtb: 6.6.1 (8d0f1dd)
N           -1.48513568680627        2.86671170575470        2.22930562686636
C           -1.56335218582156        2.15914375381942        1.19062966111838
C           -2.75185047643551        2.06515193740283        0.27232551790113
C           -3.31814161183520        0.65084681221187        0.36939321705959
C           -4.30651797542595        0.25427648165819       -0.53528779114482
C           -4.83801035236696       -1.01936422959496       -0.51866496981101
O           -5.79813360318579       -1.47945766977864       -1.36824745411585
C           -6.38091131979416       -0.58391893918319       -2.27906030910005
C           -4.37720382151375       -1.95589500765178        0.43236927819528
O           -4.95895817083213       -3.18628637869023        0.36752010572253
C           -4.62184089574814       -4.13632573012224        1.34384386774889
C           -3.41058918228948       -1.56398917485008        1.33799740865368
C           -2.89000683872497       -0.27264487077559        1.30871302919066
C           -2.19537359728500        2.29501346352269       -1.22365579187084
C           -1.28229529891397        1.15531576536477       -1.68089419112188
C           -0.00769048493955        1.12794311756248       -0.92119600775436
N            0.62050579823237       -0.05348952556289       -0.56301056415630
C            1.99050859123560       -0.04396212699377       -0.16131342426652
C            2.92744941351409       -0.55041978827853       -1.28064839534243
C            4.35111277555893       -0.43947888027840       -0.84080513213518
C            5.06476212203293        0.72752485930605       -1.04056794630230
C            6.37462209364422        0.84229062453078       -0.59732526417949
C            6.98651732470322       -0.20790289928281        0.06361921288770
O            8.26515016178326       -0.20858929768101        0.53785360190803
C            9.05666936853654        0.93208821254172        0.32862443827036
C            6.26039898777001       -1.40019146755207        0.28562665060737
O            6.94456537797573       -2.38153191631972        0.93954297166737
C            6.30907325314753       -3.61349454541219        1.16019857818136
C            4.95664748768655       -1.49658507814078       -0.16162068227078
C           -0.06293023016946       -1.31296540611052       -0.63239896221318
C           -3.88267614285559        3.06834085369740        0.60847996155309
C           -4.47690512917416        2.85013245799573        1.99501133412040
C           -3.39918221062593        4.50658748775774        0.49409323615932
H           -4.66639524787194        0.96401727243218       -1.26080877708210
H           -6.84761748389530        0.26647383377719       -1.77134121118049
H           -7.14874779304092       -1.15516184789306       -2.79800552538507
H           -5.65194597312306       -0.21704128693637       -3.00949351714931
H           -4.84862232586089       -3.77724445002702        2.35249734276768
H           -5.23785592257891       -5.00644269760471        1.12343294920869
H           -3.56453412052792       -4.41717559641363        1.28972459630931
H           -3.05238313112738       -2.25285058919821        2.08653051934999
H           -2.15018066893703       -0.00601021343063        2.04848929020754
H           -3.00389013760808        2.38239040454313       -1.95505987157016
H           -1.61915636368441        3.22165407170196       -1.27873964062497
H           -1.84241223904618        0.23035818161927       -1.55972640903847
H           -1.06616984528561        1.29234712547467       -2.75202546133459
H           -0.71504272712083        1.59421656716345        0.75313918906151
H            0.63948705641268        1.98732639403303       -0.98328684055630
H            2.10661303669259       -0.67704021611063        0.72712654145963
H            2.28704322924705        0.97527978715228        0.10505282506404
H            2.75594996317389        0.06028644149972       -2.16895190412387
H            2.67244593581742       -1.58456921523488       -1.51346189047674
H            4.60909292210690        1.55865584753668       -1.55848966628943
H            6.91071742676004        1.75959182354929       -0.78220378712782
H            8.63586227790789        1.81395051213750        0.82346978091488
H            9.19071689827567        1.14421242185728       -0.73802532978473
H           10.02318428717831        0.69879864664563        0.77255258144441
H            7.04853577837286       -4.23510460336513        1.66302081876437
H            5.42963940538070       -3.50672192175696        1.80481508404898
H            6.01428260297575       -4.09305097964603        0.22022059400708
H            4.39201234436219       -2.40235881852952       -0.00287571042027
H           -0.23333092648087       -1.62905288442790       -1.66754672726069
H           -1.03065623780864       -1.24933254960835       -0.12632780719320
H            0.54269188381578       -2.06665323845861       -0.13293414656743
H           -4.68851429340514        2.91884349603476       -0.11871872464568
H           -3.71738138225932        3.01521519312447        2.75044622588505
H           -4.86481153707274        1.84287257829835        2.10020057991489
H           -5.29650052208516        3.54919890462293        2.14981599543647
H           -2.59327420150423        4.68039962792537        1.20082690181582
H           -3.04864439183311        4.72355219935361       -0.50885788123684
H           -4.22357610608064        5.17663244414357        0.72028033326007
H           -0.58303968230112        2.85081914359935        2.70542893476808
