72
 energy: 54.150683456511 xtb: 6.6.1 (8d0f1dd)
N           -1.32089307213657        3.36866040968138        2.05348409589523
C           -1.74002458353096        2.18065678048959        1.76359480154638
C           -3.02792387415414        1.91863933233797        1.26284614593461
C           -3.41286306813258        0.57284593848870        0.94770975779418
C           -4.33759110868994        0.28659706872342       -0.08620568047690
C           -4.71365853738700       -1.00259005393334       -0.39551346914928
O           -5.58114957079400       -1.35238505204672       -1.39251640561637
C           -6.23385366570491       -0.33802215303122       -2.11056462710562
C           -4.18230451427498       -2.08972666189541        0.33606867828984
O           -4.62546461958886       -3.33006548321863       -0.03725099568927
C           -4.21991666029805       -4.44186128471156        0.71468367591147
C           -3.27486772523613       -1.82655686919506        1.35042600913882
C           -2.89230526039343       -0.53014294971452        1.64444663143518
C           -1.80063864698064        2.34198799798683       -2.39344522745650
C           -1.36311521428097        1.05190529820162       -1.85885450058137
C           -0.06068423720879        1.01854450920579       -1.20038666362046
N            0.48853041084975       -0.07730998131631       -0.66395677971102
C            1.85046930428185       -0.06358322037202       -0.19545731649512
C            2.82954252795847       -0.58489614898176       -1.26712082284669
C            4.25040678755445       -0.45559728996021       -0.79714618076184
C            4.95430649446689        0.71543658565568       -1.00196835227358
C            6.26230454225747        0.84624432022026       -0.55586032612826
C            6.88488295662531       -0.19550705004711        0.10775392744993
O            8.15838938579940       -0.18300890178735        0.58335610830527
C            8.93711106322908        0.97261070230225        0.40033584126197
C            6.17169384048197       -1.39763013898072        0.32670509507838
O            6.86568995149819       -2.36745306276153        0.98088769921154
C            6.24770605247283       -3.60695523967382        1.21426439325381
C            4.86902917747864       -1.50819194441708       -0.12362213233918
C           -0.19449412998333       -1.33867911668317       -0.74050418249141
C           -3.99986208352085        3.05527850253545        1.07116723648459
C           -4.31116727398641        3.69580925080808        2.43153959437294
C           -3.46210486396359        4.11184625281446        0.10181828749660
H           -4.74010195141153        1.10647658052957       -0.65869235280606
H           -6.81907475387991        0.31339323348069       -1.45303966515370
H           -6.90597981998915       -0.85468788608383       -2.79492669045947
H           -5.52976028715962        0.27054226620140       -2.68933155235128
H           -4.51859493024341       -4.35532668361742        1.76535465932046
H           -4.72702566617962       -5.29602867657889        0.26731581324194
H           -3.13601941888545       -4.59900321946089        0.65968599879896
H           -2.87250413564806       -2.63529833216438        1.94221228177438
H           -2.21955394186343       -0.36823689316437        2.47210050504495
H           -2.72982012401170        2.41746452802281       -2.91657034895563
H           -1.18355973022421        3.21331868940748       -2.30130562947531
H           -2.12416592110118        0.67482395184501       -1.14934201711981
H           -1.37721982216810        0.29175285545698       -2.65652377851936
H           -1.07996521492113        1.29984851985360        1.84896144312938
H            0.50003355525501        1.93465204305518       -1.10505722177082
H            1.92606472708979       -0.68252901243111        0.70273640494670
H            2.12680868617449        0.95869979338651        0.07022519649438
H            2.68639255405777        0.00146346097059       -2.17689313624836
H            2.60042128720789       -1.62827170977755       -1.49027969912816
H            4.49201817868962        1.53930356948115       -1.52479058882278
H            6.78755939342822        1.76966447907063       -0.74003864210220
H            8.48988640691916        1.84463429416767        0.88883728207571
H            9.09401610562358        1.19128744073386       -0.66126878176456
H            9.89594417897378        0.75219862966952        0.86705307360099
H            6.99512288698544       -4.21121731942141        1.72619716853636
H            5.36547078960340       -3.50675997720330        1.85569660176260
H            5.96405627015784       -4.10127981038317        0.27886883774067
H            4.31812911477175       -2.42312417345824        0.03259779747339
H           -0.35165831170294       -1.64488434258030       -1.78043810959731
H           -1.17347601760829       -1.26665216631894       -0.25615084191047
H            0.39367031565856       -2.10041928805451       -0.23510227119271
H           -4.94051492837688        2.65682824262620        0.67536616428721
H           -3.40066516117659        4.11332502420956        2.85036205483240
H           -4.70938358777901        2.95211454948188        3.12102415471978
H           -5.04644910196815        4.48954853934729        2.31387596477481
H           -2.56130980413547        4.55094084674733        0.51963861317121
H           -3.21390160358862        3.65813860755784       -0.85832414017648
H           -4.20099118740029        4.89561429826425       -0.05528015584810
H           -0.35717962099444        3.41007553734509        2.37701761967446
