72
 energy: 55.588100477892 xtb: 6.6.1 (8d0f1dd)
N           -1.28060488789989        3.37725634018577        1.95724258396232
C           -1.72566916329271        2.18524290210094        1.74743635047563
C           -2.98936676374924        1.93118339456411        1.17773190907576
C           -3.39198968276599        0.58395049079669        0.89947135971085
C           -4.33206446824136        0.28596546296121       -0.11841099290248
C           -4.71672526950997       -1.00618121976786       -0.40311426306217
O           -5.59297631048527       -1.35477150084721       -1.39308998633159
C           -6.23927657649471       -0.33731840661405       -2.11273222611409
C           -4.17889756450021       -2.09039366173551        0.32900320788157
O           -4.63059945263875       -3.33306322387763       -0.02943992528754
C           -4.22204142695935       -4.44053566011024        0.72602457020956
C           -3.27689328276982       -1.81175156787724        1.34471930304742
C           -2.88415764600151       -0.51260436017966        1.61495217516687
C           -1.87696459526378        2.34813320161356       -2.25405971159866
C           -1.38322145927566        1.04111550227316       -1.82482719747964
C           -0.04438427458308        0.99647925303695       -1.24530307662478
N            0.48109214395750       -0.07795283749326       -0.64454850844707
C            1.84553330827977       -0.06286149749301       -0.18651034474040
C            2.81969239357827       -0.58480078705059       -1.26256796314361
C            4.24130155009877       -0.45458949402228       -0.79096046542394
C            4.94849966849639        0.71437513300907       -0.99913990002691
C            6.25872591064344        0.84440684852161       -0.55675554113990
C            6.88219364173524       -0.19679388111560        0.10609312801633
O            8.15493201360376       -0.18197123986407        0.58493638034983
C            8.93628961673337        0.97226279451312        0.39948770997663
C            6.16729580629958       -1.39792040584517        0.32533851334919
O            6.86015039873930       -2.36780751310460        0.98026988786077
C            6.24332383646893       -3.60697143075515        1.21549182738023
C            4.86226900790736       -1.50827857626271       -0.12067003814698
C           -0.19415279013789       -1.34384760396418       -0.72886392073267
C           -3.97819714018442        3.05834113486041        1.02752203980049
C           -4.28790075319213        3.64178714512547        2.40699452527406
C           -3.47102005032219        4.14404920347865        0.07662971242823
H           -4.72980335351722        1.10067032523483       -0.70308017755926
H           -6.82253122924318        0.31596945856140       -1.45440268217191
H           -6.91098618332468       -0.84711230083123       -2.80175675220848
H           -5.52870463593830        0.26680275277153       -2.68814220051380
H           -4.51823800376530       -4.35418516514898        1.77640928468863
H           -4.72684891840271       -5.29793929529775        0.28107078546650
H           -3.13822561196254       -4.59620982393239        0.67170196930442
H           -2.88332232498616       -2.60806142050902        1.95676455041075
H           -2.21230790275998       -0.33752958948666        2.43907038966764
H           -2.73248842720727        2.39751613118112       -2.88757880459719
H           -1.22450100470170        3.18829137349742       -2.20431995039472
H           -2.11036433032768        0.59478216467806       -1.11687178375031
H           -1.39854114686661        0.35364251340022       -2.68402794697999
H           -1.11861501879298        1.27442764884824        1.92568224145739
H            0.51078888911591        1.91623140168041       -1.15189068639572
H            1.92211967424379       -0.68193490689256        0.71054655703391
H            2.13077411548095        0.95750403972286        0.07610636956801
H            2.67662117670889        0.00161629266274       -2.17281914262499
H            2.59066872264153       -1.62816540863624       -1.48611629511856
H            4.48921373167851        1.53782782011281       -1.52514221310784
H            6.78270278921900        1.76894660851707       -0.73876822937070
H            8.49211053002157        1.84557325821195        0.88782993874495
H            9.09374543056544        1.18907087307990       -0.66261253558312
H            9.89620607478658        0.75244486864234        0.86509145189726
H            6.99181514377511       -4.20965431688349        1.72761831705685
H            5.36163344073558       -3.50762791319009        1.85789834796386
H            5.95982103314627       -4.10322940553028        0.28124613210059
H            4.31365092321080       -2.42518205537860        0.03304753267379
H           -0.35038836953833       -1.63497007721373       -1.77381919610849
H           -1.17735323402233       -1.28370387832857       -0.24833777791697
H            0.40303225841448       -2.10496848516968       -0.23005658257209
H           -4.92005506038933        2.65353714635700        0.64138581306989
H           -3.38696281162803        4.06631113253153        2.83707094148842
H           -4.68446482843941        2.89732843562095        3.09657531530907
H           -5.02998674533869        4.42780637352398        2.29870294779275
H           -2.57196205372391        4.59166022715605        0.49435859310530
H           -3.22588714612042        3.68788146210039       -0.88172155447603
H           -4.21245180484483        4.92991470648672       -0.07580226760187
H           -0.34375416961151        3.44536474383345        2.35215068900971
