72
 energy: 55.963212794578 xtb: 6.6.1 (8d0f1dd)
N           -1.32481794015041        3.31423216999468        2.04291279837981
C           -1.66541322841064        2.19520673499774        1.51445916575691
C           -2.90151580344011        1.97645090751745        0.85506613200684
C           -3.35303085239518        0.61717041978008        0.69574868692866
C           -4.32276816505005        0.28238860360987       -0.27541957447666
C           -4.76475289131975       -1.00954936644787       -0.44561564395696
O           -5.67445907981641       -1.40476015076222       -1.38250006539921
C           -6.29187400812643       -0.42676793476955       -2.17635025934523
C           -4.25294435913214       -2.04434804446390        0.36597821079892
O           -4.75467487207726       -3.28962258536731        0.11685729112050
C           -4.37012161203451       -4.34172624622658        0.95779781085909
C           -3.32638442134068       -1.72264837680506        1.34241937495650
C           -2.88047466403621       -0.42191853415691        1.50234221264879
C           -2.00943312782909        2.34977939228051       -1.87207166977377
C           -1.38697427742390        1.01876884699040       -1.74440548117198
C           -0.04789539543238        1.00331577951574       -1.15554740606944
N            0.52877714504669       -0.08994819647904       -0.63943812603257
C            1.89803024418040       -0.07324145751483       -0.18695364731564
C            2.86126627053145       -0.58359432733918       -1.27589919441801
C            4.28538404120744       -0.45569658067424       -0.81326791561327
C            4.99281584258846        0.71487744102216       -1.01510704763564
C            6.30171535020061        0.84415497327954       -0.56534768213700
C            6.92280996668397       -0.20086822905482        0.09806568709952
O            8.19838647281052       -0.19207155438992        0.57227408782694
C            8.98246555889624        0.95826409275369        0.37593768291163
C            6.20464602467078       -1.40171836706321        0.31639266546015
O            6.89402066165512       -2.37387021132929        0.97200668296461
C            6.26764567759682       -3.61000741805823        1.19725692282328
C            4.90044734066773       -1.50827148297329       -0.13612643074413
C           -0.14384815308840       -1.36593903525975       -0.70599514768214
C           -3.95198398414400        3.05798446378177        0.85334863718724
C           -4.36646695417337        3.34739658805842        2.28407509227817
C           -3.44733424706585        4.32581907508538        0.18500996068290
H           -4.70687195689075        1.06454164236374       -0.91095427552750
H           -6.83149185427049        0.30813996789544       -1.57103253862489
H           -7.00053523391607       -0.95910052146614       -2.80913919789383
H           -5.56644672599759        0.09114709623643       -2.81219006602764
H           -4.63930773016037       -4.14992783367191        2.00010626282079
H           -4.91246458198018       -5.21637303126534        0.60040181565883
H           -3.29322373635748       -4.53396225357138        0.89945142480023
H           -2.94216111927706       -2.48028069500896        2.00176788591076
H           -2.18843861116331       -0.20917391451427        2.29987104959697
H           -2.84662214747149        2.41303008682952       -2.54563647653872
H           -1.35348763673993        3.19457094165876       -1.85968211533333
H           -2.07789896089950        0.37383784563443       -1.18477849498652
H           -1.32209977177252        0.64401539248974       -2.77611422060823
H           -0.97306505265794        1.33148400605262        1.49459116793606
H            0.53574096700851        1.91237198061834       -1.13241273136998
H            1.99035702055025       -0.69756619737175        0.70625753625388
H            2.18139098778881        0.94606274003818        0.08293766309187
H            2.70602892704988        0.01479033847274       -2.17565940321061
H            2.62474058276592       -1.62463063448113       -1.50549927094606
H            4.53431552665699        1.54147719842431       -1.53757689293797
H            6.82982064268974        1.76796843700258       -0.74547255703556
H            8.54346541913652        1.83372049104411        0.86420892912110
H            9.12975273948570        1.17344865029348       -0.68892771907682
H            9.94720391477668        0.74222650874315        0.83352842606912
H            7.00799185204779       -4.22614912621933        1.70571010801253
H            5.38426338166139       -3.50477750938194        1.83651819702412
H            5.97877749474439       -4.09502858945391        0.25863118152708
H            4.34391803186039       -2.41981454452826        0.01835312043789
H           -0.30719801681112       -1.66252589838487       -1.74664728160839
H           -1.11895934972732       -1.28852463224169       -0.21703363017607
H            0.44144383934501       -2.13547354615103       -0.20017066035762
H           -4.85632936423011        2.71778986906258        0.33988724265767
H           -3.50343726089262        3.68906859007769        2.83752428716274
H           -4.76776582475417        2.46716152565691        2.77191419860352
H           -5.13489500582442        4.11136595695351        2.27365312514685
H           -2.57295946300782        4.66677144172560        0.73727141189207
H           -3.16654662988042        4.09148768909491       -0.83374707116470
H           -4.21592964804720        5.09545662190735        0.18487759185167
H           -0.44999771938463        3.32085924000111        2.55868915123593
