72
 energy: 55.994030394639 xtb: 6.6.1 (8d0f1dd)
N           -1.27497953107009        3.40033942820314        1.93824934260491
C           -1.71919420071060        2.20464871616851        1.71135802050935
C           -2.97653358156367        1.93946029992290        1.13424418828040
C           -3.38360906181096        0.58920102665510        0.87094852405327
C           -4.32967871091308        0.28444434561745       -0.14033777615212
C           -4.72438238410568       -1.00717317962749       -0.40885509934267
O           -5.60333065714854       -1.36292123588562       -1.39401423083063
C           -6.24701936390272       -0.35030864083329       -2.12323725288646
C           -4.19049219559305       -2.08353168998602        0.33620994071352
O           -4.64797413659992       -3.32653170313271       -0.00781170584902
C           -4.24312516894362       -4.42703512409254        0.75988115240629
C           -3.28315063404243       -1.79947816115172        1.34431542925505
C           -2.88052554591945       -0.50042502388702        1.59736619617390
C           -1.89391959352117        2.35127588255702       -2.20356419974175
C           -1.39015931356453        1.03412891603310       -1.81288888972364
C           -0.04637167956093        0.98504415453165       -1.25475732918849
N            0.47845150021608       -0.07552699559960       -0.63406230080738
C            1.84905806016310       -0.06129138526446       -0.18943836401108
C            2.82181089661143       -0.58507237468122       -1.26500740170242
C            4.24559015291868       -0.45588538399978       -0.79482919300274
C            4.95414399336180        0.71265937578510       -1.00252960633016
C            6.26415905480523        0.84295900167619       -0.55851716308132
C            6.88814086601717       -0.19769039328298        0.10404972869491
O            8.16104256592997       -0.18273035158453        0.58299361015563
C            8.94296240558719        0.97118675341507        0.39630985583481
C            6.17254967924153       -1.39835877840694        0.32330636337096
O            6.86436681009700       -2.36809023680124        0.98167931458907
C            6.24667222999389       -3.60745749037956        1.21426920976280
C            4.86700774546686       -1.50859132806243       -0.12284173249388
C           -0.18794859081328       -1.34378586276638       -0.72653505782076
C           -3.97579949597510        3.05914755324102        0.99772454148468
C           -4.29714458265854        3.60238421383167        2.38779521638206
C           -3.47334186792449        4.17372572665755        0.07825989184831
H           -4.72745997487727        1.09400594922711       -0.73223434996457
H           -6.82507826012054        0.31354374587842       -1.47142755486759
H           -6.92338635101425       -0.86433329237809       -2.80424921626811
H           -5.53422211797767        0.24216520438260       -2.70696265961031
H           -4.53648930201029       -4.32629990353290        1.80947206736528
H           -4.75387697864038       -5.28591881362295        0.32604030163884
H           -3.16040958292207       -4.58709481659523        0.70381929825923
H           -2.89176354270836       -2.59019974209046        1.96373010433837
H           -2.20697215589533       -0.31884763574482        2.41812245940366
H           -2.74293271001510        2.39777389434401       -2.84333089495991
H           -1.24117638390622        3.19079188220803       -2.15434707515575
H           -2.11093251187662        0.56975868183985       -1.10915595819603
H           -1.38279674377189        0.38026753487006       -2.69858590104008
H           -1.09430303575511        1.31358110570029        1.87493642932108
H            0.49892887958664        1.90778239049895       -1.15296610372797
H            1.93266491090477       -0.68403613586928        0.70669794422274
H            2.13894027015845        0.95776827006972        0.07578880940476
H            2.67832800603778       -0.00045509085212       -2.17594534482347
H            2.59328501312864       -1.62877855950031       -1.48723687996777
H            4.49518662578102        1.53727896626050       -1.52724257600429
H            6.78890303932754        1.76758512271644       -0.73930388682426
H            8.49944597640376        1.84407788587918        0.88540740661358
H            9.09942822662494        1.18770845326080       -0.66593698368068
H            9.90329645362672        0.75086344321157        0.86094341128804
H            6.99349364122606       -4.21254539960234        1.72615208304915
H            5.36478942143084       -3.50645961753618        1.85599448023743
H            5.96246147168084       -4.10127003299389        0.27906359700669
H            4.31823593682942       -2.42506651724728        0.03175957939602
H           -0.34621699048822       -1.63532268879646       -1.77070140764445
H           -1.17077970647250       -1.28739465144693       -0.24715410409155
H            0.41047355683175       -2.10297405685605       -0.22765010369967
H           -4.91120847429913        2.65764267346008        0.59672441294346
H           -3.40129079800149        4.01335304066811        2.83961182784622
H           -4.69414483595089        2.83352690040085        3.04446681932476
H           -5.04428575847574        4.38521804323842        2.29829762974387
H           -2.57873505485089        4.60392697705160        0.52430144406618
H           -3.22626590388951        3.74549034000423       -0.89399770024055
H           -4.21516092354207        4.96413535403668       -0.05327383204876
H           -0.35382198873536        3.44159081118461        2.37265391135708
