72
 energy: 56.615495580989 xtb: 6.6.1 (8d0f1dd)
N           -1.28863601350549        3.36712126759931        1.98415683697403
C           -1.69099642315535        2.20016158564208        1.61449766941622
C           -2.94031752421084        1.95925517467722        1.00154162274386
C           -3.36662269413846        0.60389155859913        0.78423165538530
C           -4.32590440288380        0.28323181178982       -0.20724477950717
C           -4.74578420362601       -1.00865764511768       -0.42615393934084
O           -5.63826605945341       -1.38465655364505       -1.39028446269951
C           -6.27004349415777       -0.38763750620802       -2.15120800507104
C           -4.22315495556244       -2.06482069559488        0.35284503831016
O           -4.70007622267464       -3.30707771952518        0.05479713852843
C           -4.30589915097014       -4.38463918122181        0.85953302732557
C           -3.30512935879990       -1.76198610348436        1.34329240853110
C           -2.87952123956868       -0.46231602489737        1.54984323602266
C           -1.94704961557922        2.34689808190734       -2.04890073063956
C           -1.39333900295781        1.01436276695974       -1.77406483068391
C           -0.04761497817336        0.97698471179853       -1.21174223976086
N            0.50095453247152       -0.09254591499824       -0.64407563582805
C            1.86986700405478       -0.06956932879331       -0.19081058102881
C            2.84141163545910       -0.58603255280087       -1.27049746726920
C            4.26492317744725       -0.45540968741781       -0.80241393880556
C            4.97317046640568        0.71365241849861       -1.00797344525374
C            6.28234445725460        0.84355548355958       -0.56005014236750
C            6.90493098892966       -0.19876993057191        0.10311889847183
O            8.17999485327100       -0.18789660504721        0.57566898337969
C            8.96313517047420        0.96571072557600        0.38653709323671
C            6.18787292119624       -1.39997970028201        0.32101556646031
O            6.87905126564339       -2.37034687493010        0.97657248793689
C            6.25669552578192       -3.60887114584724        1.20546886139106
C            4.88343476586045       -1.50806015443804       -0.12912515763134
C           -0.16836182487194       -1.36207869386653       -0.72259304644205
C           -3.96505428506711        3.05765706639647        0.92008014888378
C           -4.33076844164766        3.47659738436589        2.33366782785322
C           -3.46436682704161        4.25654401915751        0.11816820604712
H           -4.71985390360500        1.07890888794423       -0.81986642477625
H           -6.83041661884568        0.31062434155339       -1.52133210793237
H           -6.96121357407250       -0.91131926468681       -2.80966430340494
H           -5.54940576441748        0.16795133243087       -2.75944883797249
H           -4.58877691366138       -4.24027028126363        1.90624951915935
H           -4.83266799273280       -5.24998767208007        0.46145896137927
H           -3.22641659957439       -4.55938912018633        0.80123351553718
H           -2.91610579406097       -2.53611293531803        1.98133780175283
H           -2.19926175418449       -0.26509954219073        2.36040844046469
H           -2.79476437024236        2.40442749052299       -2.69861526138898
H           -1.30105989855214        3.19845085935575       -2.00720231056067
H           -2.10726735430576        0.46915001752231       -1.13088922864027
H           -1.35266422901153        0.48351385325208       -2.73616777477073
H           -1.04678359922044        1.30389196097460        1.68716080239667
H            0.49238571448537        1.90094312531597       -1.10558753047540
H            1.95892358319895       -0.69227775084291        0.70398059875196
H            2.15398398442863        0.95018675504612        0.07681316143247
H            2.69471160438235        0.00234313563548       -2.17912464189712
H            2.60917479992626       -1.62923785154586       -1.49695077873460
H            4.51462207188774        1.53894712173891       -1.53189929114277
H            6.80892413242974        1.76820390933717       -0.73853106716715
H            8.52109455402780        1.83871819877790        0.87569510238205
H            9.11497646250897        1.18120033553218       -0.67696758737659
H            9.92533304995043        0.74708462954665        0.84787122086645
H            6.99958089585709       -4.21989109339062        1.71566787560439
H            5.37380578644389       -3.50567198989590        1.84573573152255
H            5.96992100996912       -4.09751023808625        0.26844241954700
H            4.33118650979724       -2.42279131310372        0.02441736753666
H           -0.32854562365631       -1.65550929420026       -1.76483125484826
H           -1.14525862585428       -1.29126303452571       -0.23567970315694
H            0.42419308784392       -2.12308695119579       -0.21864580941147
H           -4.88531866821577        2.67583380898882        0.46594918006936
H           -3.44905894362867        3.85353637427695        2.83400793240904
H           -4.72832028268205        2.64850842488217        2.91340395362115
H           -5.08804498820987        4.25000704277118        2.28188667416659
H           -2.57881146122202        4.64306627469187        0.62207683504821
H           -3.20465949752766        3.92082000373785       -0.88216137873954
H           -4.21651729085071        5.04270416075773        0.05632142074824
H           -0.39459967935846        3.37292573934842        2.46912286661857
