  72
        -99.27044372
 N         -1.7663550760        3.0651846569        2.3871254146
 C         -1.7839363445        2.2309916939        1.4584694515
 C         -2.9704849705        1.9826496422        0.5673113706
 C         -3.4328491234        0.5847922067        0.8445859117
 C         -4.5569506761       -0.2183573487        0.3174983355
 C         -4.7181867137       -1.0949462493       -0.7295161699
 O         -5.0680223332       -1.0459958909       -2.0038456139
 C         -5.3686989553        0.2272751434       -2.5447015797
 C         -4.3394457695       -2.3166618603        0.0858901373
 O         -5.3055662577       -3.2997940606        0.2190086613
 C         -4.9060370244       -4.4018403545        1.0022507223
 C         -4.1926076837       -1.3285013016        1.3079951390
 C         -3.0016214336       -0.4413601076        1.6188221834
 C         -2.4944983898        2.1170696797       -0.9020716835
 C         -1.6215342967        0.9551065029       -1.4026924882
 C         -0.2517778444        0.9643615349       -0.8418238327
 N          0.4316667119       -0.1117767463       -0.4665956579
 C          1.8376512002       -0.0120805581       -0.1532801039
 C          2.7193052063       -0.4027573468       -1.3557279245
 C          4.1702955928       -0.2628167488       -0.9903389304
 C          4.8171875339        0.9552563486       -1.1225299680
 C          6.1453983676        1.0973908214       -0.7522920888
 C          6.8541879882        0.0214025477       -0.2370612808
 O          8.1402119154        0.0441399527        0.1573255943
 C          8.8700114295        1.2454666023        0.0573232054
 C          6.1994612279       -1.2342920636       -0.1007663633
 O          6.9620517818       -2.2268576672        0.3981400902
 C          6.4128135606       -3.5153997096        0.5374262116
 C          4.8698384836       -1.3508779480       -0.4742024358
 C         -0.1586004655       -1.4283102949       -0.4705522088
 C         -4.1742839534        2.9368273572        0.8165788622
 C         -4.7439596928        2.7643748846        2.2227713648
 C         -3.8288555950        4.4027453058        0.5743650707
 H         -4.8414498905       -1.5595344047        2.1352551220
 H         -5.7914686787        0.8799720303       -1.7769846767
 H         -6.0946197476        0.0674476558       -3.3401741108
 H         -4.4678393279        0.6832738178       -2.9644959886
 H         -4.6547146486       -4.0980185001        2.0239192051
 H         -5.7550157018       -5.0804789955        1.0232335855
 H         -4.0406902350       -4.9076578521        0.5581373753
 H         -3.3788840600       -2.7386072675       -0.2606109168
 H         -2.1852780153       -0.5682673933        2.3059858065
 H         -3.3785091339        2.1786077732       -1.5363006270
 H         -1.9420583301        3.0515298337       -1.0064192189
 H         -2.1265842938        0.0080638010       -1.2159518732
 H         -1.5306315570        1.0711670092       -2.4916757092
 H         -0.9259046197        1.5900729502        1.1828691566
 H          0.2890272234        1.8984267066       -0.8590484075
 H          2.0642994392       -0.6674374096        0.6915040118
 H          2.0715878833        1.0137700834        0.1383881775
 H          2.4795020450        0.2535464828       -2.1941218830
 H          2.5026600185       -1.4308636817       -1.6483124426
 H          4.2908993435        1.8056614897       -1.5287775278
 H          6.6237698810        2.0552384353       -0.8740189070
 H          8.4211206355        2.0383581384        0.6632543025
 H          8.9507605933        1.5796619968       -0.9813406167
 H          9.8623940480        1.0165007127        0.4407980577
 H          7.2166103721       -4.1345640861        0.9307828371
 H          5.5752915841       -3.5209139057        1.2424740563
 H          6.0844945270       -3.9179211159       -0.4258727212
 H          4.3657697813       -2.2999260923       -0.3790157660
 H         -0.3963096473       -1.7534361648       -1.4861175038
 H         -1.0763898024       -1.4322845137        0.1237601018
 H          0.5400819729       -2.1370867486       -0.0333754579
 H         -4.9502612489        2.6378947469        0.1002854709
 H         -4.0060852643        3.0564143465        2.9630311634
 H         -5.0378151236        1.7336271663        2.4038209725
 H         -5.6213949131        3.3948116415        2.3396928350
 H         -3.0215650004        4.7097889324        1.2321611853
 H         -3.5433511882        4.5895948378       -0.4575489702
 H         -4.6984675240        5.0159761035        0.7948935666
 H         -0.9135270707        3.1508315630        2.9311403981
