25
 energy: -42.032989697977 gnorm: 0.007435890641 xtb: 6.6.1 (8d0f1dd)
C            3.67727991609490        0.80055327466776        0.57670227862455
N            2.46567068581757        0.20576479602913        0.06487630646417
C            2.43464337580035       -0.89472151066358       -0.69974829329081
N            1.34934898542052       -1.63978697519938       -0.89298770002549
C            0.27849133290787       -1.98549531477064       -0.07490719138961
C            1.25103142079694        0.71464396338467        0.31027806167626
C            0.11377673173527        0.94701121202219       -0.03786725078825
O           -1.97393500806094        2.96867575320594        0.34556334004895
N           -1.19088737795124        0.84366011327068       -0.27045740531810
C           -1.97711256598821        2.03832349856344       -0.66570005544238
C           -1.70376115304333       -0.40623832793328       -0.45259533320152
O           -2.75074842309128       -0.65193715169084       -0.97517762302980
N           -0.89740344456665       -1.50570797416177        0.11679044125887
C           -1.75564843160576       -2.29695292982641        1.00301086867270
H            3.80976028457441        0.54763522200666        1.63093944434766
H            4.53256763921705        0.43223210409932        0.01412893361429
H            3.62199452430054        1.88433458016022        0.48214200534468
H            3.36496986562179       -1.22430981231627       -1.13935185191775
H           -2.65814460525379        2.79082097978479        1.00319953840775
H           -1.48746711122447        2.49673015935552       -1.53334393297577
H           -2.96984670818956        1.67011880937622       -0.94978057797034
H           -1.20309152095016       -3.16378825756351        1.35542889595267
H           -2.64068603578603       -2.61620302527900        0.45286157843481
H           -2.06572710240037       -1.68406191629507        1.84873030102474
H            1.53535623992625       -2.45306272862132       -1.48156316062111
