72
 energy: -99.658515054160 xtb: 6.6.1 (8d0f1dd)
N           -1.32589883557081        2.84013461466981        1.79674200296979
C           -1.65961931747317        1.69050658178410        1.42556452541326
C           -2.55165572189421        1.44180563826122        0.24555224774310
C           -3.53702076104040        0.34412084505546        0.59362465566599
C           -4.46642202067862       -0.06748188400428       -0.35915530086497
C           -5.36885997462535       -1.07187668111231       -0.09424351759611
O           -6.32417966168718       -1.52536889805167       -0.95203009850935
C           -6.49926186758410       -0.82587823014071       -2.15402157316692
C           -5.34327672647006       -1.72968193097704        1.14776149663045
O           -6.22356621821068       -2.76290588466943        1.23868598626927
C           -6.14212857481238       -3.60338276643229        2.35366770651295
C           -4.50670681359428       -1.25649105018118        2.13956005802680
C           -3.62358006430400       -0.21820854868346        1.86346333332139
C           -1.41669120848063        1.11458086432786       -0.78984647910135
C           -1.18452826719285       -0.05634401913877       -1.74691331769262
C            0.32223134743055       -0.23619138717028       -1.69529707691863
N            0.87650713079518       -0.71995230350010       -0.52998257280373
C            2.15418058106509       -0.31512034563142        0.00588156457967
C            3.05054335737820        0.41888362215604       -1.02348575764558
C            4.50743618220525        0.27116316392592       -0.69026641208960
C            5.16151231714207        1.32701062322187       -0.11907840225030
C            6.48737210800293        1.23000514906275        0.25484731629472
C            7.19794258078817        0.06671133178873        0.08669261125680
O            8.49080248774392       -0.13331523941415        0.46327478912016
C            9.18690293819307        0.96177622084945        0.98688659540164
C            6.56039271132240       -1.01021772810708       -0.56120181664492
O            7.34049052214587       -2.11309917990838       -0.72033502440959
C            6.75876330060958       -3.21793127861245       -1.35504766029221
C            5.23849171914204       -0.89148424096663       -0.95936166971099
C            0.40034400146028       -2.00186437141489       -0.10766234339555
C           -3.35478518640251        2.68581423930401       -0.25416785902359
C           -4.54300595078657        3.19513706961697        0.53317370420607
C           -2.55829490525271        3.95147083675469       -0.52233098743232
H           -4.47581236716644        0.40456134343328       -1.32517038270574
H           -6.65587330481442        0.24370405472729       -1.97854636674930
H           -7.39978598497447       -1.24191376965142       -2.60613676850223
H           -5.62353923959137       -0.96716222881553       -2.80464596643693
H           -6.41987276143052       -3.07974573705008        3.28726359462953
H           -6.85059879016056       -4.41528345725719        2.17557204484458
H           -5.12352662623358       -3.99061427843163        2.42135553394195
H           -4.52688489652148       -1.68733538399191        3.13052611863869
H           -2.98425970878071        0.10975523250134        2.66735570408340
H           -1.27693074693163        1.96423160604689       -1.43699883542014
H           -0.54298122212057        1.03548661788834       -0.16525333369135
H           -1.79650592582942       -0.91413295890853       -1.50426254894087
H           -1.37677563023663        0.17767633129130       -2.79406046464897
H           -1.28626912237791        0.84082184358716        1.99548969308505
H            0.81717591836525        0.64917000313729       -2.08319245357677
H            2.70088147700535       -1.20865633066863        0.30692174847492
H            1.96018100422743        0.23431267857278        0.94359429154792
H            2.78790111844042        1.47814941529385       -1.09989367354967
H            2.91445525931149       -0.03884192315314       -2.01020943056395
H            4.61392267349211        2.24181177144072       -0.01596336972580
H            6.96596848882978        2.08040445269944        0.68470508505254
H            8.71044007247166        1.35450093305272        1.88771405579782
H            9.26793738000203        1.75225533115777        0.24451971089551
H           10.18247214744054        0.60466889515000        1.23834921543409
H            7.52360337381872       -3.98538790239471       -1.36069003879713
H            5.87674099385605       -3.54421020437397       -0.80186055794217
H            6.46376028653899       -3.00576807202808       -2.38504145255117
H            4.76570804496505       -1.71715543674816       -1.47536760287923
H            0.82007590136480       -2.79129960467377       -0.75256316680390
H           -0.68779984784014       -1.98093278665155       -0.11800106352395
H            0.70607931242985       -2.17166245403395        0.91050193949529
H           -3.76140632568356        2.33308917349974       -1.19605537369758
H           -4.14931790973187        3.65705470444305        1.43145234721669
H           -5.25961998027944        2.42450898628160        0.78345248207551
H           -5.03927583707620        3.94127173094673       -0.09707934529759
H           -2.08653480429051        4.34230480711102        0.36563506689822
H           -1.74875519831437        3.74231174343645       -1.21074379791115
H           -3.22959944403866        4.68797829544916       -0.96757859126303
H           -0.71244815424874        2.83308105520880        2.60459614980371
