72
 energy: -99.274418686956 gnorm: 0.007260525684 xtb: 6.6.1 (8d0f1dd)
N           -1.86534473467339        2.92525139613481        2.34890581288683
C           -1.82178176286208        2.15324098436994        1.36437164959502
C           -2.90490314232102        2.03284021459097        0.33280495312262
C           -3.40049111252045        0.59883776774950        0.25836929151985
C           -4.07510765294438        0.16467326188969       -0.89223840578900
C           -4.54539742747998       -1.11425542445671       -0.86008341217195
O           -5.22462306143880       -1.56184001834345       -2.11908868605931
C           -6.64111564827194       -1.82103477878712       -1.98717718123169
C           -4.43724120946684       -2.03271889286578        0.18938572489997
O           -4.99371230956436       -3.26558487140711        0.02436843273210
C           -4.90487550031424       -4.18772568602614        1.08925982205826
C           -3.75995914034126       -1.56633427989137        1.30827897545793
C           -3.25714015612607       -0.26937203199135        1.33246554439295
C           -2.27254425235866        2.43714277793764       -1.02210314044370
C           -1.30273029674712        1.40467157041610       -1.62280216755956
C           -0.01727687149497        1.29031171980321       -0.90236583194980
N            0.57329918501694        0.14737506727223       -0.54765939902350
C            1.95838679037928        0.13836294371766       -0.14336347480965
C            2.88526359521839       -0.27867039390227       -1.30246099271555
C            4.32305134916168       -0.11332823705099       -0.89892038987212
C            4.98034336054902        1.08541002930995       -1.11300004172003
C            6.30013686953692        1.25116129732136       -0.72031880472857
C            6.98609949450710        0.21923474951827       -0.09909841521881
O            8.26859096018897        0.26776426937158        0.31910459650263
C            9.01259967819006        1.44303431395135        0.09889921888471
C            6.31774372838204       -1.01210801890352        0.13183615075342
O            7.05964261684009       -1.96356013166439        0.74168110651909
C            6.48681376636824       -3.22437212195597        0.98729569716361
C            4.99982887904069       -1.15550082284930       -0.26844312804535
C           -0.07997714195801       -1.12883592372691       -0.70213665338196
C           -4.14509580884239        2.93438136144701        0.60684825102352
C           -4.81987082480432        2.58537987848072        1.93146171031649
C           -3.82289430115023        4.42637837121707        0.58231675432518
H           -5.09817632001929       -0.79289514991981       -2.71133894382194
H           -7.16169453563612       -0.96367955154571       -1.55899309957252
H           -6.75286916157675       -2.68689394561460       -1.33543257358320
H           -7.03338483761324       -2.05271199037863       -2.97563848836746
H           -5.41039879416458       -3.81063826590913        1.98248022458467
H           -5.40720363292334       -5.08763628868201        0.73958691080719
H           -3.86401097761460       -4.42191216408756        1.32653279976207
H           -3.63032960905928       -2.19725698693857        2.17234122667501
H           -2.75712536286867        0.06645587370292        2.23016220242231
H           -3.08567674271810        2.57588207007025       -1.73404973364176
H           -1.75169087056020        3.38666968850963       -0.90057204807753
H           -1.80959964913045        0.44502622304519       -1.70316487380253
H           -1.07760130907259        1.75036815455148       -2.64057682179958
H           -0.95438678690306        1.51109609996033        1.12959054280249
H            0.55505456531858        2.19242906044746       -0.75046813559394
H            2.08740855338085       -0.55180575592550        0.69472804712040
H            2.24100869462281        1.13857396008347        0.19089514254538
H            2.66761513716101        0.35444710762728       -2.16468754889965
H            2.68573385276313       -1.31581086854099       -1.57515448894294
H            4.47053912679273        1.90176004315607       -1.60209112838199
H            6.78744437165299        2.19358481583504       -0.90885949242647
H            8.57869767787136        2.29800378960961        0.62682857312065
H            9.09099709269787        1.67394846551166       -0.96794965203239
H           10.00462421847223        1.23957487845836        0.49749360747098
H            7.26933600205483       -3.81350345191501        1.46165816891320
H            5.62940100884933       -3.15179947712146        1.66465677523952
H            6.17878759477951       -3.71442677801094        0.05806194868759
H            4.48489243615286       -2.08952564578883       -0.10593829853890
H           -0.14286694736647       -1.42250951997715       -1.75325390300643
H           -1.08912032956128       -1.08969395010445       -0.28695046738776
H            0.48610263339316       -1.88599746468525       -0.16452948549062
H           -4.85264877207106        2.71652982486577       -0.20314464158791
H           -4.15431092532551        2.81377288582559        2.75766685392991
H           -5.08897294664741        1.53255484786047        1.97312131284377
H           -5.72683421195055        3.17371680849281        2.04474416088401
H           -3.06269119548423        4.65524742393712        1.32239982886089
H           -3.48365547927977        4.75344208026540       -0.39655890497435
H           -4.71974805913534        4.98909111879288        0.82859875746728
H           -1.05584782979921        2.94045121602083        2.96267692130203
