72
 energy: 12.640479341255 xtb: 6.6.1 (8d0f1dd)
N           -1.49612441811625        2.86832352611925        2.26907370666446
C           -1.53420361498644        2.17155416810557        1.22297339201247
C           -2.71521374705098        2.06860550259580        0.29474391989482
C           -3.27344134126896        0.65566093710481        0.35722324704767
C           -4.21170790907681        0.23241949880246       -0.59486174287724
C           -4.81521337410141       -1.01423814457310       -0.63229906267874
O           -5.79334929698905       -1.38509806779175       -1.62118818845288
C           -6.69511701542365       -0.68016873176700       -2.58681316121083
C           -4.38286658438375       -1.91583262470893        0.42887325110637
O           -4.92462670701393       -3.17474275255646        0.45340294545711
C           -4.61069956875596       -4.07238585512136        1.49168256024990
C           -3.45349544047460       -1.49747248425915        1.38199208183721
C           -2.89671048638436       -0.22659805400817        1.34840669538598
C           -2.15868359559825        2.33356153887806       -1.12851018263867
C           -1.23667087533295        1.22253411526216       -1.66466245758305
C            0.04433791732591        1.15837263579710       -0.90600498313338
N            0.65507161858729       -0.04500882300410       -0.56181742220011
C            2.02291264888709       -0.05247769999666       -0.16267506599495
C            2.95695038610793       -0.55645088735719       -1.28419177896688
C            4.38201205050436       -0.44933842668103       -0.84731294960132
C            5.09820903601891        0.71571910962801       -1.04872242480110
C            6.40928081956372        0.82752919135755       -0.60815463591647
C            7.02155710897294       -0.22410769701645        0.05029083370022
O            8.29913826256832       -0.22386414811930        0.52542509528067
C            9.08990392622494        0.91746241174689        0.32013143150099
C            6.29532349189910       -1.41515481388484        0.27203130067222
O            6.97784805427102       -2.39644660744168        0.92722042926210
C            6.34318977294226       -3.62847349572882        1.14909569220769
C            4.98964205506459       -1.50783126266631       -0.17179335346471
C           -0.03876583856009       -1.29835894540386       -0.65460012660223
C           -3.86200724523141        3.06199164585473        0.62374512584849
C           -4.48201693405238        2.76575593205756        1.98781020303729
C           -3.42138385875116        4.52395909682666        0.56992264412891
H           -4.52551609331829        0.92656612650493       -1.35695119549941
H           -7.26851663701616        0.16702584673416       -2.18171529299004
H           -7.41420993671166       -1.42077643714031       -2.94323483135133
H           -6.12702178471152       -0.30665752319684       -3.44622969384887
H           -4.87876114070487       -3.67877498597028        2.47857497531128
H           -5.20995621432003       -4.96259044610868        1.29197698852364
H           -3.55185292866219       -4.35459901365421        1.49131073531121
H           -3.12956511166938       -2.15528946788158        2.18348629899725
H           -2.18675360304752        0.06998235960797        2.10897253993718
H           -2.99513238221833        2.45087077956335       -1.82042876076916
H           -1.59989977168390        3.26977504709767       -1.12120457620526
H           -1.77165239839920        0.27195537978044       -1.62786112684111
H           -1.03777320264849        1.45230454535415       -2.72490354102278
H           -0.66980651654141        1.63571359554705        0.78055787577153
H            0.70029525380208        2.00879943286502       -0.95873057256949
H            2.14255184796355       -0.68787318104579        0.72313265020546
H            2.32381419015073        0.95991947514950        0.10930895054399
H            2.78662131190050        0.05236228653930       -2.17271935085848
H            2.70180474064816       -1.59079550434300       -1.51965303121298
H            4.64133664878270        1.54559443636213       -1.56608980103274
H            6.94609968345629        1.74462512546647       -0.79228250678560
H            8.66673714432902        1.79765789559764        0.81608901397946
H            9.22552035332064        1.13234116649834       -0.74562246564073
H           10.05613849574656        0.68510538919589        0.76491599891072
H            7.08227336036887       -4.24975625487716        1.65324072991394
H            5.46379128494222       -3.52151795532003        1.79321147146714
H            6.04949323910513       -4.11035677582377        0.20997163032406
H            4.42631588829061       -2.41478321735507       -0.01318204837847
H           -0.22211036783600       -1.59469806927417       -1.69521481016493
H           -1.00156097725752       -1.24040869644380       -0.13661965430597
H            0.56308837745334       -2.06984712325007       -0.17608108676223
H           -4.63592402634059        2.90978262023513       -0.13757810095845
H           -3.74240889676558        2.91909809769245        2.76811441687688
H           -4.83958482546056        1.73970123079075        2.03393454750397
H           -5.32407378545641        3.43304816196984        2.16067395082073
H           -2.63114646473847        4.70142805646301        1.29226289361259
H           -3.07322752469947        4.80434429996887       -0.42059391193319
H           -4.26475698766315        5.16338294943745        0.82309342684977
H           -0.60782944124475        2.87628949575671        2.77031126165940
