72
 energy: 0.441236674377 xtb: 6.6.1 (8d0f1dd)
N           -1.49422402143252        2.82771523191251        2.25703201462496
C           -1.54176090506273        2.16208327638224        1.19225527027157
C           -2.72873863371912        2.06591892922349        0.27443169814346
C           -3.29137689139481        0.65437270448210        0.34469929948353
C           -4.24761748186256        0.24137299751620       -0.58982568551313
C           -4.82780207058231       -1.01421290069858       -0.60134727627722
O           -5.80047107173837       -1.43116614062432       -1.51608661080035
C           -6.57067331756668       -0.65604196529229       -2.46664069389089
C           -4.38673662344059       -1.91965382234048        0.42643844128128
O           -4.95072893475017       -3.16858961852829        0.43406294837887
C           -4.63265592355156       -4.08168346116767        1.45673268168454
C           -3.44055057337177       -1.51399466849448        1.36156439456963
C           -2.89227208616783       -0.23879790469224        1.31943423474370
C           -2.17370508058027        2.32029497610729       -1.15144704830525
C           -1.24846104137191        1.20376340848531       -1.66642632195184
C            0.02493684465421        1.14636176786016       -0.89716893157892
N            0.64530968716566       -0.04578463977260       -0.56087808141010
C            2.01370444457782       -0.04453580851151       -0.16037725385418
C            2.94761264976222       -0.54991197595413       -1.28162025904233
C            4.37251622662628       -0.44263045998147       -0.84329579768719
C            5.08905600683011        0.72200346584524       -1.04597533220930
C            6.40008184717094        0.83344035835785       -0.60601909586482
C            7.01168514430044       -0.21804693115479        0.05292630311177
O            8.28962841402594       -0.21865122466924        0.52603860244237
C            9.08132321420352        0.92206703060951        0.31945100110666
C            6.28516091271582       -1.40929623377995        0.27504492960013
O            6.96762827052950       -2.39121597649625        0.92858051264389
C            6.33188921190004       -3.62294624110188        1.15014435181847
C            4.97974767766033       -1.50188770957237       -0.16831651818381
C           -0.04372412469040       -1.30134565248424       -0.63986871945860
C           -3.86586994118288        3.06874312222899        0.60780172815795
C           -4.48751018893781        2.76990224297551        1.97061858540130
C           -3.41069325048944        4.52644095341129        0.56151472686223
H           -4.58139686223179        0.93766269938444       -1.34078600081914
H           -7.10089856826708        0.20382500923857       -2.03301105753593
H           -7.31844855254781       -1.33035088271157       -2.88370640954184
H           -5.94293715464540       -0.28730397372196       -3.28606415104672
H           -4.88139541643057       -3.69397794944697        2.45075484237104
H           -5.24432124564776       -4.96256001994930        1.25725234633189
H           -3.57666108813401       -4.37318787206907        1.43646550305988
H           -3.10510860651329       -2.17965119539345        2.14884761552522
H           -2.16880686200673        0.05239155827253        2.06812729918744
H           -3.00749092301606        2.42529824482715       -1.84729969192249
H           -1.61961334845717        3.25979112101951       -1.15333789461112
H           -1.78582630482314        0.25564796890508       -1.62559420994040
H           -1.02758877092598        1.41898697954466       -2.72357102238991
H           -0.67661338389135        1.64233368250572        0.72192549031436
H            0.67563474226483        2.00160882524501       -0.95343478146002
H            2.13307882892649       -0.67881193377295        0.72570248304419
H            2.31282750517128        0.96966577211536        0.10944052023116
H            2.77825200351335        0.05852077637922       -2.17091995276623
H            2.69313198740844       -1.58444303661797       -1.51670301843653
H            4.63334741172613        1.55212760969791       -1.56433533922693
H            6.93735876803388        1.74984328789685       -0.79152362403983
H            8.66013309903921        1.80291881585177        0.81591214618373
H            9.21547018966478        1.13597826546335       -0.74658786357463
H           10.04781664380154        0.68815118469583        0.76286983487951
H            7.07082158191253       -4.24492619872865        1.65342238982764
H            5.45291798375352       -3.51573730364509        1.79495039561434
H            6.03732017302547       -4.10350704638014        0.21066077435294
H            4.41634183724308       -2.40886095393525       -0.01027283102365
H           -0.22178332600904       -1.60709948726825       -1.67802137506062
H           -1.00785472500403       -1.24118626076154       -0.12519193865023
H            0.56153617864802       -2.06369996087667       -0.15267409022806
H           -4.64107446227345        2.92918147357269       -0.15463945337388
H           -3.74801441460837        2.91307244463798        2.75262282639158
H           -4.85270655685055        1.74643249212844        2.01227749781657
H           -5.32418851050357        3.44257538122318        2.14714381155723
H           -2.61926728379769        4.69518566588133        1.28499248720721
H           -3.05924229930133        4.80906450029785       -0.42738997247695
H           -4.24837535962016        5.17234440845914        0.81628388069569
H           -0.60352698354294        2.83059250898438        2.75295132852749
