72
 energy: 59.445970007244 xtb: 6.6.1 (8d0f1dd)
N           -1.49637187372888        2.94193779589255        2.29465472338594
C           -1.52112309888688        2.20889532278789        1.27783266960076
C           -2.68773255532175        2.07831587321322        0.33788690724771
C           -3.22774907058325        0.65746836981342        0.39177156375384
C           -4.11431063406207        0.21328575984216       -0.58881555016207
C           -4.73075670298352       -1.04741963376187       -0.66315022056193
O           -5.54582534073974       -1.34127294867275       -1.69552919616070
C           -7.08304402590988       -0.68238664089134       -2.95041185530139
C           -4.33600273969488       -1.91444251053828        0.47385074967643
O           -4.86197099758190       -3.18485264444303        0.50345929352872
C           -4.57042105943047       -4.05836391855875        1.56267321884473
C           -3.45547392855405       -1.46801727190321        1.44951992295569
C           -2.89332661626091       -0.19944560675453        1.41819133854136
C           -2.12494766650259        2.36261771452667       -1.07917993781161
C           -1.21726125510488        1.25527086672505       -1.65326055578577
C            0.09488449355590        1.14433366254894       -0.95962040238646
N            0.66460937872611       -0.02988701289624       -0.58124286893526
C            2.03967950488800       -0.06476975749898       -0.16799108860925
C            2.97129665435527       -0.56883675594383       -1.28829473681418
C            4.40066088786244       -0.46190718537849       -0.85166116885529
C            5.11540293862466        0.70298782212729       -1.05365700464920
C            6.42773995419981        0.81590880745796       -0.61322247253402
C            7.04234050980525       -0.23515015521930        0.04491887658463
O            8.31690424946412       -0.23314764775195        0.52154767020722
C            9.10713069267668        0.91006586028516        0.31928943673884
C            6.31625708681001       -1.42756220320827        0.26625714217727
O            6.99775598085809       -2.40605643931896        0.92266587095690
C            6.36478467310545       -3.63919520139776        1.14660416521406
C            5.00906084962475       -1.52003726180749       -0.17781751098824
C           -0.03239909068669       -1.29091628088363       -0.68279958554666
C           -3.85448468189819        3.05149258223739        0.65669194147493
C           -4.47012299175980        2.75812467048478        2.02309650162170
C           -3.44302042666145        4.52131301546056        0.58711730821368
H           -4.41581924850173        0.89569801797272       -1.37119619693266
H           -7.64570045778776        0.11840199613512       -2.51112721540213
H           -7.63655867402688       -1.58747614570810       -3.10481543878841
H           -6.49645246469525       -0.35879899629681       -3.78512208008295
H           -4.87747501552575       -3.65454008371741        2.53531117436269
H           -5.14926442710037       -4.96142143786089        1.35698204817271
H           -3.50764063707964       -4.32551372609952        1.60397882236052
H           -3.16583995786523       -2.10653114792315        2.27555422475016
H           -2.21731396892880        0.11157578052639        2.20144949684120
H           -2.96445049160032        2.50036351677993       -1.76531366848433
H           -1.55699104727908        3.29212656198973       -1.05600999150461
H           -1.75355250109383        0.30515107103306       -1.62894342921059
H           -1.04721912585549        1.52084602339771       -2.70894885516113
H           -0.65893907225056        1.62969425519148        0.89855446241480
H            0.74133557347213        2.01031910387841       -0.94981704613071
H            2.15462045544349       -0.70547794988414        0.71460746290267
H            2.35041126032688        0.94220824351125        0.11183938162595
H            2.80498347139568        0.03959880072077       -2.17781099166866
H            2.71939946742854       -1.60350245437639       -1.52592223346785
H            4.65753066781306        1.53192833802506       -1.57120250815245
H            6.96300207244003        1.73412381583237       -0.79652447597732
H            8.67983151250411        1.78848842855966        0.81447340221329
H            9.24527171036185        1.12641452183410       -0.74571032968626
H           10.07266805408051        0.68078626946130        0.76679338519727
H            7.10389297086937       -4.25879347665484        1.65272097401712
H            5.48501285867238       -3.53144483553781        1.78958938621594
H            6.07282658656975       -4.12341742090536        0.20835887907059
H            4.44712754406307       -2.42788102296335       -0.01932644109225
H           -0.22221827965913       -1.56834367486560       -1.72560947655181
H           -0.99086279106851       -1.23767078287829       -0.15738433990923
H            0.56598295798753       -2.07616878465569       -0.22072642722078
H           -4.62454786898949        2.87178955314119       -0.10162541714078
H           -3.73345791224171        2.93349205923731        2.80190102522271
H           -4.81030827468347        1.72696397890057        2.07801347815148
H           -5.32390974398273        3.41228168328877        2.18884792553760
H           -2.65515618045562        4.71876915368786        1.30662910317143
H           -3.10230504789235        4.79801377734094       -0.40693185223848
H           -4.29723679094703        5.14714343584524        0.83708701217189
H           -0.61188029949027        2.96797102434004        2.80116878221874
