72
 energy: 45.236307176671 xtb: 6.6.1 (8d0f1dd)
N           -1.49760332944320        2.92937634732626        2.28772393470126
C           -1.52198130841907        2.19496180410222        1.26647087084777
C           -2.69414345849097        2.07476050810609        0.32685010133673
C           -3.24229717304400        0.65783801125584        0.38021145506247
C           -4.15032486155174        0.21855337898053       -0.59356662697637
C           -4.77253671330192       -1.02344932144853       -0.65760171112332
O           -5.69197782661961       -1.33576522610884       -1.75753349131888
C           -6.90455723783120       -0.70481570163746       -2.78694083395753
C           -4.36050193040108       -1.91312363192532        0.44729412251310
O           -4.88050560790404       -3.18174970922579        0.48649687663335
C           -4.58042957228769       -4.06046732914468        1.54527973916357
C           -3.46195424667788       -1.47339384254546        1.42329742511610
C           -2.89965199032552       -0.20695235476022        1.39726634581460
C           -2.13451600439556        2.35425553755197       -1.09228797648038
C           -1.22119518039119        1.24873466655006       -1.65966223625815
C            0.07983127473771        1.15952594909832       -0.94244080565969
N            0.66625246839743       -0.03987130313338       -0.56840231599902
C            2.03567235795150       -0.06373813405379       -0.16682659060999
C            2.97043027713568       -0.56643929227436       -1.28816591233864
C            4.39593450406873       -0.45925299308975       -0.85241691456046
C            5.11138336187646        0.70649438198212       -1.05256657485328
C            6.42281237888001        0.81920957999601       -0.61171475740869
C            7.03642709357069       -0.23235632036087        0.04615674620604
O            8.31375407007500       -0.23089743021336        0.52295208888803
C            9.10257116788574        0.91188635253548        0.31919293607275
C            6.31052089997636       -1.42373061561209        0.26769093123861
O            6.99325041523937       -2.40420057839737        0.92438804304659
C            6.35917592724636       -3.63627717139086        1.14697236446576
C            5.00447709434333       -1.51692086497281       -0.17634458825082
C           -0.03222415818101       -1.29309294132559       -0.67559353963480
C           -3.85645171113884        3.05250782157817        0.64842495815660
C           -4.47363872443720        2.75949281194330        2.01423120098825
C           -3.43764193256283        4.52046015990558        0.58204343590926
H           -4.44376116929856        0.90812750948685       -1.37024356663373
H           -7.52358234419095        0.11893747081729       -2.41790346824147
H           -7.55809441986422       -1.53995666388186       -3.04642937094504
H           -6.39507751030983       -0.35042992585238       -3.68043066122544
H           -4.87958092010028       -3.65875892133711        2.52024301436705
H           -5.16421778189323       -4.96039644068552        1.34067829233927
H           -3.51920752086126       -4.33142475132044        1.57678038421677
H           -3.15815729602283       -2.12018025315194        2.24115158489245
H           -2.21210789641447        0.09939242215133        2.17414340780737
H           -2.97393537075469        2.48953252586235       -1.77929766871364
H           -1.56768057169150        3.28467987264518       -1.07151208316847
H           -1.75491514302771        0.29666110877625       -1.62865911646397
H           -1.05163898939206        1.50442359323149       -2.71943072096429
H           -0.66035951589112        1.63092946118671        0.87014931204116
H            0.73459510760215        2.01349422384979       -0.95894054169883
H            2.15434285659751       -0.70241141728898        0.71774543582509
H            2.34253463001388        0.94529563022281        0.11070990905418
H            2.80004392998036        0.04277266761062       -2.17621257814501
H            2.71530770206145       -1.60072950652386       -1.52458973974421
H            4.65327741418190        1.53537849352663       -1.57003843585111
H            6.95878262144957        1.73707942390191       -0.79528538615957
H            8.67619185207877        1.79096736923688        0.81440674314572
H            9.23983685291947        1.12815818051352       -0.74615905638184
H           10.06863514531231        0.68244442111840        0.76577122214993
H            7.09801128835945       -4.25684246520137        1.65256846864403
H            5.47922118566488       -3.52888478676344        1.79003330217656
H            6.06650450521956       -4.11984404682310        0.20838927249291
H            4.44172310255543       -2.42435241173207       -0.01797915201185
H           -0.22212851966703       -1.57641344782676       -1.71885809723882
H           -0.99284112883258       -1.23873415816058       -0.15244652970468
H            0.56492079287093       -2.07678841446674       -0.20904369994174
H           -4.62768458810916        2.87982337605005       -0.11122512699199
H           -3.73570689800422        2.92987671001686        2.79287985949697
H           -4.81834580003683        1.72936046872986        2.06779568497370
H           -5.32444775650545        3.41738148689426        2.18087846869252
H           -2.64915907923080        4.71265418601951        1.30214307764536
H           -3.09464035142608        4.79696224536743       -0.41119885742485
H           -4.28956591146159        5.14982528516533        0.83214269560075
H           -0.61156382484948        2.94575176852934        2.79347321912684
