72
 energy: 70.606365073343 xtb: 6.6.1 (8d0f1dd)
N           -1.45014862024631        3.10075870910576        2.30786939706813
C           -1.47473989480120        2.26115696211734        1.37978225735797
C           -2.61795946287483        2.09849045009160        0.42958842981049
C           -3.12079184646255        0.66955491329913        0.49168977990982
C           -3.92338558506962        0.19304946053748       -0.51239352343899
C           -4.49899957661665       -1.11586337441112       -0.52700524857218
O           -5.21430642891129       -1.42819527946337       -1.49701416138135
C           -7.92519291086390       -0.70312437830286       -3.72657264017017
C           -4.16557165082919       -1.95922376149593        0.61916889517553
O           -4.71238644583459       -3.21065528947603        0.62464890362433
C           -4.48145564079221       -4.03358115248511        1.73048742910333
C           -3.37034385023536       -1.45502273269412        1.61968988457567
C           -2.84807658951924       -0.16590254134941        1.56729617046114
C           -2.04785005746135        2.42105405089941       -0.97604471098002
C           -1.17983150158015        1.31031305490658       -1.59916207631426
C            0.14960798208046        1.13963522530752       -0.98246494233025
N            0.68618819593783       -0.01902873469562       -0.60135103016099
C            2.06707976094835       -0.07630736811906       -0.17846506817766
C            2.99710124230680       -0.59244955862170       -1.29227098072596
C            4.43380414546953       -0.48635098034332       -0.84952709357950
C            5.15032630668954        0.67567393527064       -1.06082270744393
C            6.46426418049096        0.78965031233905       -0.62498772827149
C            7.08119115156411       -0.25847464311083        0.03305935341190
O            8.35240299336946       -0.25573516938515        0.50533363845289
C            9.14352002585312        0.89324074573454        0.31892583290126
C            6.35632737181534       -1.45536918525072        0.25297656969883
O            7.04176152910632       -2.42957645042879        0.90316315852954
C            6.41230938223549       -3.66408411420527        1.13923272153108
C            5.04739994760422       -1.54848504367069       -0.18654658816650
C           -0.02420321334605       -1.26847749213773       -0.73606600545565
C           -3.82875338470052        3.02857458812141        0.72999759463704
C           -4.43955386693513        2.73772409857222        2.09855709436079
C           -3.48595467769340        4.51280770226247        0.62549826562080
H           -4.18862643885672        0.80710655014895       -1.36756925610594
H           -8.49290047711687        0.04929338019316       -3.23816614219426
H           -8.13747222527533       -1.72464270048143       -3.52834872088492
H           -7.32611881180630       -0.44982629794714       -4.56206866899916
H           -4.87466941928378       -3.60819512556818        2.66502556190497
H           -5.00779634703676       -4.96114900022846        1.50679707782413
H           -3.41410191264201       -4.24839817106837        1.85622408301340
H           -3.14338991452541       -2.05409176168628        2.48636448441631
H           -2.25849684478236        0.18928553761400        2.39308971527114
H           -2.88682892023285        2.59973715014044       -1.65099942318306
H           -1.46596107282805        3.34225958935271       -0.91515056215967
H           -1.73911160164234        0.37480882959823       -1.61856587352411
H           -1.00105640254849        1.62050976338474       -2.63538227746696
H           -0.62354441880745        1.59226817195659        1.13440645538709
H            0.76740594508368        2.01606674983795       -0.85714052421783
H            2.14967897130247       -0.73506590646451        0.68982985671859
H            2.39996214553527        0.92166850972970        0.11989624743113
H            2.84489283492039        0.01263325446235       -2.18837256944837
H            2.75565686088608       -1.62922400565709       -1.53268080146225
H            4.69534329083791        1.50517380720951       -1.58015467975738
H            6.99822905066461        1.70821910885353       -0.80806783918133
H            8.70881162018146        1.76687263591879        0.81584494320850
H            9.28964767617629        1.11333268829040       -0.74331900150056
H           10.10490464364778        0.66264841049615        0.77443320428288
H            7.15477765979794       -4.27599573143102        1.64919511283523
H            5.53337323649969       -3.55448509365187        1.78300114850053
H            6.12364434462484       -4.15457257327321        0.20382507052727
H            4.49045880763437       -2.45954630105754       -0.02972909305460
H           -0.22070430425810       -1.49832948265484       -1.78436077264734
H           -0.97675311913529       -1.22952511305025       -0.20016074537789
H            0.58057240140738       -2.06718074938559       -0.31375617440522
H           -4.58851759518223        2.79088530756444       -0.02319399234642
H           -3.72228168034620        2.96155321754762        2.88185933536192
H           -4.74391385787455        1.69731530448327        2.17624697052142
H           -5.31879212886106        3.36040547444662        2.24605056552866
H           -2.70290384861411        4.76323558128410        1.33426365693735
H           -3.16766711511943        4.78683252127724       -0.37712468837053
H           -4.36692746494700        5.10160214740841        0.86809620938408
H           -0.62018772780547        3.14623383543428        2.89042557544829
