72
 energy: -3.179860811155 xtb: 6.6.1 (8d0f1dd)
N           -1.49371369921230        2.80816363282388        2.25029473155082
C           -1.54501585942471        2.15828458495901        1.17649206996593
C           -2.73502461131050        2.06396913330118        0.26407295958536
C           -3.29976540669970        0.65269819354883        0.33854357881763
C           -4.26612622748766        0.24366829111944       -0.58537526269531
C           -4.83314025241566       -1.01693213077848       -0.57824229825021
O           -5.80462452353557       -1.45237460558480       -1.46413161664718
C           -6.51092956357133       -0.64175584730111       -2.40784408481879
C           -4.38874272873783       -1.92746488396256        0.42998918674413
O           -4.96377283033989       -3.16817732856733        0.42535739243497
C           -4.64298905842932       -4.08756040919244        1.44019420238757
C           -3.43353677291649       -1.52394901861846        1.35250074085675
C           -2.89021136263481       -0.24608836152681        1.30485882848443
C           -2.18113764743853        2.31364178054480       -1.16310503378383
C           -1.25391949912009        1.19475646126094       -1.66752088682708
C            0.01700546036328        1.13992369373900       -0.89634982054783
N            0.64093372373311       -0.04591521767266       -0.56102107136297
C            2.00930890829019       -0.04003754942885       -0.15952379242418
C            2.94308986671927       -0.54647515674602       -1.28036335294948
C            4.36784123602443       -0.43929927666615       -0.84108604949380
C            5.08454479414401        0.72513594699798       -1.04444967237436
C            6.39556436054077        0.83638177794587       -0.60491197255861
C            7.00676185484133       -0.21504617071286        0.05436187689076
O            8.28488461275650       -0.21620510884794        0.52647418028058
C            9.07710419094670        0.92418687308713        0.31935835622900
C            6.28003332433753       -1.40645389932641        0.27669105839699
O            6.96259416967508       -2.38867875289582        0.92921442957524
C            6.32642974286699       -3.62027104372674        1.15081761010984
C            4.97474989093078       -1.49898246834743       -0.16636581422053
C           -0.04608041814436       -1.30242609596688       -0.63283321534483
C           -3.86735387302213        3.07167999443185        0.59968008383134
C           -4.49015922431783        2.77181183741135        1.96172253448173
C           -3.40510460540638        4.52730013003759        0.55721975502775
H           -4.60763703600454        0.94071986445010       -1.33248764200043
H           -7.01689153174820        0.22197367767307       -1.95677673238825
H           -7.27060485856012       -1.28237787485512       -2.85426254029951
H           -5.85131873064654       -0.27956996985840       -3.20442460398737
H           -4.88205339582034       -3.70079010063772        2.43678302352235
H           -5.26035091605898       -4.96387986640998        1.24152334747344
H           -3.58810025729650       -4.38182337183912        1.40964636072513
H           -3.09264918472137       -2.19260587735420        2.13251958620271
H           -2.16083935220674        0.04282981896354        2.04793249192098
H           -3.01365239528826        2.41209889885639       -1.86082372364580
H           -1.62993878499482        3.25512163647997       -1.16971892717508
H           -1.79220241643876        0.24763379459863       -1.62503929198906
H           -1.02169799539810        1.40371161562628       -2.72222034939342
H           -0.67947571443497        1.64573287000503        0.69381326812679
H            0.66438876856738        1.99806401414946       -0.95058545978905
H            2.12828786693727       -0.67360373435117        0.72679610365903
H            2.30787401902910        0.97520438240311        0.10927649940373
H            2.77413533332809        0.06170149189368       -2.17019968864683
H            2.68862573375803       -1.58108108052295       -1.51501015427075
H            4.62942815683882        1.55545718398122       -1.56330991734559
H            6.93305781448918        1.75242230326051       -0.79114875464397
H            8.65696924562826        1.80538939917072        0.81611455980730
H            9.21057861976055        1.13766141115512       -0.74679564047850
H           10.04367562101027        0.68937242457960        0.76214596907030
H            7.06543124189367       -4.24245184242376        1.65361729189279
H            5.44775005412295       -3.51299363730060        1.79610253957832
H            6.03140895163985       -4.10023790566646        0.21121205954592
H            4.41118516655681       -2.40590482107143       -0.00852581220013
H           -0.22119180142128       -1.61288255944020       -1.66966955885355
H           -1.01108327757198       -1.24144446149700       -0.12013565784351
H            0.56062371197626       -2.06031602419930       -0.14127711688061
H           -4.64291852031061        2.93849797373645       -0.16356840030630
H           -3.75118971748676        2.90961748451541        2.74496295972248
H           -4.85984379361550        1.74992636173070        2.00115586043986
H           -5.32374715924891        3.44761513714938        2.13977662633557
H           -2.61301243843749        4.69215159830487        1.28108432273895
H           -3.05239016086792        4.81139458865751       -0.43093876063190
H           -4.24015107974229        5.17597454011595        0.81298661479428
H           -0.60198118524561        2.80859534902843        2.74381889617039
