72
 energy: 68.705073959079 xtb: 6.6.1 (8d0f1dd)
N           -1.45052915728554        3.07850425976629        2.33270176669982
C           -1.46860117329529        2.26853059885908        1.37778146284846
C           -2.61843412548805        2.09320631217944        0.43163002478106
C           -3.12206597380221        0.65451523996322        0.49876876440808
C           -3.93219441422163        0.15886200267915       -0.49963321990850
C           -4.47165861125199       -1.16561866056040       -0.49322683147281
O           -5.17424262863232       -1.60265477803369       -1.42270013314123
C           -8.16044468468923       -0.55131877555621       -3.99305700530453
C           -4.12977292727479       -1.96867781694899        0.67814416818099
O           -4.67623142643201       -3.21519925276560        0.66735076625059
C           -4.47015536928124       -4.06800683052689        1.75824069912669
C           -3.32643666190564       -1.45722317489079        1.67044829876841
C           -2.81382212126112       -0.16233509110476        1.58582675318617
C           -2.05241264856383        2.41067595445769       -0.97874711114643
C           -1.18381867666193        1.30146977525366       -1.60096613603790
C            0.13259812879496        1.14150374692055       -0.95243374254556
N            0.68979433483432       -0.01946565903215       -0.61373865934843
C            2.06337572925275       -0.07485385586340       -0.17836338004822
C            2.99774887134640       -0.59097033583729       -1.29033148273929
C            4.43073366885660       -0.48663640205828       -0.84856368316333
C            5.14620644885992        0.67620299205992       -1.05886276167660
C            6.45953683774567        0.79172757131292       -0.62393506108553
C            7.07512134870519       -0.25737142982100        0.03452959280251
O            8.34930116157375       -0.25727746736316        0.50475313276085
C            9.13998889507407        0.89019532696493        0.31887890968988
C            6.35100146614490       -1.45373916167854        0.25484122203837
O            7.03862401035019       -2.43057308085398        0.90191159522854
C            6.41106815732282       -3.66563726603549        1.13755515244154
C            5.04324310495329       -1.54887792831145       -0.18473392277712
C           -0.02129656509571       -1.26879564368650       -0.73545317266302
C           -3.82516687358294        3.02802042428487        0.72910079381406
C           -4.43541914789659        2.73777334284538        2.09936731762205
C           -3.48224267459186        4.51315751414447        0.62765200117323
H           -4.21724387427843        0.76635257560281       -1.34597871068433
H           -8.73156603723491        0.21030261198332       -3.50810997029691
H           -8.14625715403603       -1.54382384190658       -3.59725590143129
H           -7.53847402844990       -0.29923990212478       -4.82422791235030
H           -4.87023872190294       -3.64590093670079        2.68741865728341
H           -5.00863210731786       -4.98457007945658        1.51903966940697
H           -3.40725491207970       -4.30091321640943        1.89821999672182
H           -3.08528995169826       -2.04669439307767        2.54471279014645
H           -2.21027363413097        0.21391583856482        2.39911638211900
H           -2.89009052823256        2.58780051248219       -1.65258592158894
H           -1.46871322129984        3.33162768267663       -0.92281005179217
H           -1.74695925795211        0.36977490312240       -1.61463342320645
H           -1.00203587789418        1.59801873901759       -2.64286244642181
H           -0.61005881729844        1.62576095288180        1.10170029449703
H            0.75076370789217        2.02042657298180       -0.84351263916298
H            2.13948568136674       -0.72936483289176        0.69475313774699
H            2.38930697107760        0.92516756138375        0.11642911652513
H            2.84128826005825        0.01532764507097       -2.18454458569907
H            2.74840259875140       -1.62577418873054       -1.52812221284566
H            4.68937016064035        1.50627343146187       -1.57699247484199
H            6.99343412291371        1.70955410901636       -0.81109859496776
H            8.70779088274821        1.76501157369101        0.81595104590034
H            9.28869732742597        1.11169573178560       -0.74313000950143
H           10.10070397943057        0.65651210443375        0.77494007781462
H            7.15539665996488       -4.27568525307502        1.64692393118539
H            5.53220489005523       -3.55797664656245        1.78219192414758
H            6.12037878258405       -4.15724910063564        0.20317862060714
H            4.48388711011654       -2.45829627096782       -0.02713101331098
H           -0.22997251376846       -1.50589861337302       -1.78086046976109
H           -0.96927826308893       -1.22219232859161       -0.19242147603620
H            0.58429913343650       -2.06634963164544       -0.31262780070539
H           -4.58282208381567        2.79606126601179       -0.02840839012543
H           -3.71748169515940        2.96024512388809        2.88229569961717
H           -4.73579001530727        1.69619335957810        2.17765565746579
H           -5.31561955793108        3.35943750254776        2.24622111469920
H           -2.69800816097669        4.76393161793932        1.33505487509019
H           -3.16377513927805        4.78812875578499       -0.37468541831566
H           -4.36437168932885        5.10109384360376        0.86993021774175
H           -0.59670013574530        3.12149360682609        2.88401642368965
