72
 energy: 71.620240858585 xtb: 6.6.1 (8d0f1dd)
N           -1.46710729214597        3.06820087258754        2.30570739963520
C           -1.49990378880456        2.25196612904314        1.35966011281319
C           -2.64103978672899        2.09193846699983        0.40260169169276
C           -3.15004602598092        0.66440596596921        0.45000277984708
C           -3.97421801288115        0.20512226459743       -0.55045283288233
C           -4.57544584724030       -1.08796551563669       -0.58198391372847
O           -5.31050555866486       -1.34835020786017       -1.56939511953676
C           -7.67875425521932       -0.73674589028829       -3.47732613286667
C           -4.22612652208629       -1.93833977422499        0.56930759668089
O           -4.75815785906923       -3.19662196103360        0.58005716209215
C           -4.51242161827641       -4.03803989604069        1.67266032465161
C           -3.41422677287055       -1.44960875776237        1.56643888478270
C           -2.87456320803162       -0.17038658074576        1.52014336517214
C           -2.07191754910261        2.40244740556295       -1.00709691547980
C           -1.18695636129158        1.29209040566342       -1.61448590894888
C            0.14669400291633        1.12947916634396       -0.99120240385758
N            0.67881916064225       -0.01849394608058       -0.59797766562394
C            2.06311522253580       -0.07618092928297       -0.17553145216101
C            2.99173790682957       -0.58733232316292       -1.29528947019374
C            4.42585214935976       -0.47993137729773       -0.85476471020486
C            5.14030975067630        0.68468618218441       -1.05933689368982
C            6.45366995258738        0.79935374400049       -0.61988162956858
C            7.07025140499885       -0.25023049484809        0.03891297669975
O            8.34289360833344       -0.24848888976116        0.51084683506860
C            9.13247195476396        0.89856236304232        0.31871907116087
C            6.34421392763356       -1.44539227499286        0.25945406281451
O            7.02783713139123       -2.42154184883680        0.91083771864686
C            6.39700302955018       -3.65541834314265        1.14212302295513
C            5.03623248379413       -1.53882727959736       -0.18415258073044
C           -0.02452026746313       -1.27519457153859       -0.72191162996826
C           -3.83912846098161        3.03704542635705        0.70597672422004
C           -4.44989607310832        2.74505677222455        2.07394229049626
C           -3.47272131054887        4.51646665100169        0.61258358980957
H           -4.25459744017042        0.84242286402589       -1.38549495229372
H           -8.21554869007819        0.03336397232338       -2.99697046429619
H           -7.97248545179638       -1.75404217932657       -3.37228043014811
H           -7.06845433170279       -0.45034709916129       -4.28519961216399
H           -4.87682517327678       -3.61837037646964        2.62024553194834
H           -5.05714223920514       -4.95847979045490        1.45585145694418
H           -3.44706108163509       -4.27544247762649        1.77253496645763
H           -3.18860481285965       -2.05676419178093        2.42516894588888
H           -2.25952472854233        0.16973434642071        2.33320137014934
H           -2.91329754147541        2.56725087764929       -1.68534944004708
H           -1.49368582114468        3.32401750830635       -0.96004795467842
H           -1.73460554260985        0.35065664915723       -1.62606058620400
H           -1.01808520032596        1.59855403420104       -2.65301476291528
H           -0.64273190726585        1.61399085422513        1.07329884245346
H            0.77370404376427        2.00595111666322       -0.89184967026901
H            2.16148586436761       -0.73336262132329        0.69432056026460
H            2.39025974929374        0.92329191936032        0.11759875085959
H            2.83238443996017        0.02146895285409       -2.18645912930705
H            2.74448032451810       -1.62248393830074       -1.53401909747124
H            4.68252292790779        1.51295968470714       -1.57791208356448
H            6.98743541730286        1.71800310668789       -0.80316443253572
H            8.69942181820012        1.77378984271106        0.81453621341197
H            9.27493973824000        1.11771507611258       -0.74455796002516
H           10.09624723381573        0.67099806640057        0.77076619475350
H            7.13741541201464       -4.27127570826396        1.65075461542378
H            5.51747211195703       -3.54642820651382        1.78512347831766
H            6.10693201587638       -4.14370364319241        0.20579294736012
H            4.47680306683375       -2.44837581672601       -0.02664198607826
H           -0.22015627198858       -1.52133414885933       -1.76774177741948
H           -0.97773904808552       -1.23410851960616       -0.18733937304688
H            0.57424194767201       -2.07373639274825       -0.28676081451712
H           -4.60157347012488        2.81820984340457       -0.04931830886902
H           -3.72439513656215        2.95340843424524        2.85445767388609
H           -4.76557797763051        1.70770212042326        2.14375631880244
H           -5.32042696131396        3.37830634973935        2.22845235402462
H           -2.68857679414052        4.74803075962464        1.32610836486796
H           -3.14557296565075        4.79012355653137       -0.38683612680747
H           -4.34443377907492        5.11809019582498        0.85752653583550
H           -0.61548577467263        3.09252752976036        2.85929791437501
