72
 energy: 71.549062347156 xtb: 6.6.1 (8d0f1dd)
N           -1.45973604829981        3.08623504915841        2.29976920985174
C           -1.49949737444118        2.24874230204334        1.37092132885639
C           -2.63437433825287        2.09173508334035        0.41180399829288
C           -3.13914260065387        0.66498858617049        0.46272071176432
C           -3.95608419855901        0.20223771204568       -0.53834160779362
C           -4.54658605990570       -1.09619067949138       -0.56361995086179
O           -5.27486817657303       -1.36431370775498       -1.54510296671494
C           -7.76777413361919       -0.73722844544676       -3.56013182327907
C           -4.20544103210901       -1.94623348781535        0.58505541192411
O           -4.74260729127483       -3.20240750803966        0.59400648620430
C           -4.50227080519714       -4.03569435164329        1.69256352603833
C           -3.40052164324054       -1.45224679532163        1.58422127779201
C           -2.86714075979098       -0.17001675673643        1.53503821184497
C           -2.06421368736577        2.40896314641333       -0.99608027130377
C           -1.18358565909317        1.29869489668002       -1.60719390569417
C            0.15009686471969        1.13327267826851       -0.99057901776798
N            0.68165990717537       -0.01894456716176       -0.59712711933122
C            2.06719509489909       -0.07679476683885       -0.17656896557125
C            2.99509731127695       -0.59049663694911       -1.29534038369806
C            4.42952253005593       -0.48244041780381       -0.85348138668226
C            5.14407605225983        0.68167048672503       -1.05978564650260
C            6.45770839650364        0.79632435600726       -0.62139059981854
C            7.07451949312604       -0.25321423520022        0.03683981048423
O            8.34682175607561       -0.25132657941558        0.50845332924078
C            9.13643417248663        0.89648287378463        0.31871810590489
C            6.34872799893746       -1.44861526768766        0.25773084704355
O            7.03291535207673       -2.42457327467822        0.90844112267513
C            6.40220947423304       -3.65832548382616        1.14103639279724
C            5.04044019418147       -1.54211999769203       -0.18476641367645
C           -0.02455919983231       -1.27414682925847       -0.72692814165414
C           -3.83555857753616        3.03384146444563        0.71406243487079
C           -4.44640711339653        2.74247268996482        2.08207113427411
C           -3.47702055594705        4.51514439168992        0.61707455518108
H           -4.22908491648833        0.83125958336821       -1.38406306673124
H           -8.31083562730844        0.02895046973719       -3.07584769879283
H           -8.02617450459921       -1.75977684297258       -3.41965722830003
H           -7.15977162825361       -0.45891053676174       -4.37494361578874
H           -4.87660191070054       -3.61299434771148        2.63543824089732
H           -5.04031449055461       -4.95904138621137        1.47363717229609
H           -3.43653594060800       -4.26727779730615        1.80207246344838
H           -3.17648619313671       -2.05450749581017        2.44782476596747
H           -2.26872174678049        0.17521577800154        2.35592981685234
H           -2.90468619928162        2.58017935608950       -1.67351240685039
H           -1.48340584190133        3.32898852669705       -0.94390826334170
H           -1.73429206439262        0.35935560581465       -1.62381520791493
H           -1.00829894991847        1.60667309332269       -2.64239494842271
H           -0.64038465220362        1.60590294695662        1.10102111367784
H            0.77006586711448        2.01130070091458       -0.88166812356786
H            2.15939109108172       -0.73493941687282        0.69210900991872
H            2.39666723135323        0.92224904946575        0.11829414110901
H            2.83695916727385        0.01821791326868       -2.18710929842187
H            2.74859578541113       -1.62570566659573       -1.53449624127541
H            4.68646096917329        1.50978793462299       -1.57876284333420
H            6.99122009366304        1.71511602036428       -0.80458344167505
H            8.70259640413400        1.77122928184966        0.81483117536729
H            9.27985201487599        1.11644241516530       -0.74420011347431
H           10.09975967820549        0.66875340944901        0.77171380487813
H            7.14297912347632       -4.27333879992914        1.65007365710751
H            5.52270315176380       -3.54914693848974        1.78411318353633
H            6.11237283405167       -4.14730663229232        0.20502919070022
H            4.48138831112733       -2.45198040999984       -0.02787344232183
H           -0.22059372853657       -1.51436227364295       -1.77379702558573
H           -0.97691831740565       -1.23357661935727       -0.19212641014056
H            0.57561659649378       -2.07395358669184       -0.29709299088638
H           -4.59705962089663        2.80909488084413       -0.04045673375569
H           -3.72327149942222        2.95602525614105        2.86328819118151
H           -4.75841149041078        1.70417125901577        2.15435161771830
H           -5.31971850276329        3.37237811326022        2.23393424919554
H           -2.69363862089328        4.75307027514438        1.32949267997453
H           -3.15232042535959        4.78891991076609       -0.38316441728640
H           -4.35201009020978        5.11256425811057        0.86083579566128
H           -0.61692467226072        3.11181382040073        2.86623839985362
