72
 energy: 68.753683617504 xtb: 6.6.1 (8d0f1dd)
N           -1.49022651883176        3.00683905483237        2.30947497962429
C           -1.51091032748411        2.23949966026775        1.31928789507983
C           -2.66422441626562        2.08682555460434        0.37068505867520
C           -3.18606276739940        0.65864905753035        0.41553380178697
C           -4.03100825052744        0.20531104489368       -0.58174063481391
C           -4.65398640603449       -1.07272977520237       -0.61120861506205
O           -5.43591932599555       -1.35485975140938       -1.57347296691234
C           -7.40371599708446       -0.70084284666379       -3.23788589516269
C           -4.28093856002610       -1.92547503044582        0.53469145021895
O           -4.81023629637087       -3.18963478038214        0.54687548384474
C           -4.54119163771323       -4.05065998952745        1.61890095616714
C           -3.43940956655825       -1.45323742481726        1.51562873204329
C           -2.88422242610946       -0.18183755459487        1.47064998469179
C           -2.09898502060314        2.38405747037629       -1.04283445214375
C           -1.20177453260720        1.27560437125089       -1.63493645948672
C            0.12272175606448        1.13418472125062       -0.97873592962594
N            0.67079689146444       -0.02116962341967       -0.59299468360338
C            2.05182170329349       -0.07172267693511       -0.17149280367669
C            2.98273834664066       -0.57792983758410       -1.29187807610545
C            4.41418801510803       -0.47142546188229       -0.85441097801732
C            5.12827662820550        0.69369500955645       -1.05698417168381
C            6.44122261835009        0.80755508548126       -0.61680805759444
C            7.05740746280918       -0.24281073877554        0.04202145820804
O            8.33096602438179       -0.24037649411290        0.51795653887197
C            9.12005702326829        0.90453891986845        0.31899377812510
C            6.33127597867957       -1.43667814715957        0.26276866249148
O            7.01314316520982       -2.41365244431881        0.91863745112529
C            6.38111636803583       -3.64708752568869        1.14494289029529
C            5.02336137762578       -1.52952869588710       -0.18141722237106
C           -0.02808290782377       -1.28329854101327       -0.70266006614777
C           -3.84776639030209        3.04404753843428        0.68131810028354
C           -4.46092121795419        2.75191127384416        2.04875852198320
C           -3.45863341975366        4.51905033557203        0.59924509349915
H           -4.33513046625621        0.86841258468971       -1.38042342259601
H           -7.93518049645594        0.07703158707147       -2.75807790526982
H           -7.80809089702789       -1.68985475284911       -3.23345593994348
H           -6.78280655546623       -0.40177539929603       -4.03725920729508
H           -4.87677581688036       -3.63966124167809        2.57977199744171
H           -5.10372249650215       -4.96198015686654        1.40676111485857
H           -3.47637158207220       -4.30322930324241        1.68942498370678
H           -3.18571011792654       -2.07499285836557        2.35637684629000
H           -2.23622058120289        0.14404674031830        2.26766595849827
H           -2.94034453017656        2.53543105121015       -1.72478771000135
H           -1.52494677913897        3.30861424024406       -1.00809259883557
H           -1.74150155809117        0.32774969988580       -1.62826781347821
H           -1.03655853370889        1.56331598090700       -2.68169323467519
H           -0.65078636121366        1.62658464580338        0.98674913830010
H            0.76535085045432        2.00428972614330       -0.92609217960019
H            2.16380512688134       -0.71966758389360        0.70619848133978
H            2.37046301674102        0.93179346671130        0.11446527571480
H            2.81864922155067        0.03046228345910       -2.18211811314432
H            2.73212253963452       -1.61281480795909       -1.53025526713853
H            4.66961544989277        1.52196381284915       -1.57481366219935
H            6.97532601226442        1.72636159586169       -0.79998688320897
H            8.68961258429603        1.78151294714062        0.81399056419874
H            9.26012327812869        1.12205385348061       -0.74535428360531
H           10.08490289979520        0.67701370541181        0.76863499691751
H            7.12054529100694       -4.26505987561209        1.65248171646951
H            5.50118594134420       -3.53874831778557        1.78747714657671
H            6.09024758865934       -4.13329991298473        0.20750894976337
H            4.46225870535014       -2.43797757583045       -0.02320050119114
H           -0.22120170525038       -1.54548716784872       -1.74711366017278
H           -0.98392911713966       -1.23596838568549       -0.17227959024268
H            0.56913609456958       -2.07735315632929       -0.25436181942878
H           -4.61356057538655        2.84411639622199       -0.07576374711930
H           -3.72920127221963        2.94433872596021        2.82809355565768
H           -4.78844365383459        1.71736698608205        2.11104982848117
H           -5.32327999058553        3.39578744480631        2.20857139711304
H           -2.67280789786083        4.73340385488362        1.31614661256757
H           -3.12406925790511        4.79318506038524       -0.39759695103875
H           -4.32160335363927        5.13322812327516        0.84625027510381
H           -0.61550887007960        3.03431219010722        2.82994575017232
