72
 energy: 69.774563033396 xtb: 6.6.1 (8d0f1dd)
N           -1.44432644555287        3.10066467567856        2.33020432297508
C           -1.46067441978307        2.27368395091802        1.38967369221494
C           -2.60543200761081        2.10316087538745        0.44035992494329
C           -3.10923566631360        0.67019765483148        0.51122028903020
C           -3.90658980561640        0.17905561325381       -0.49243737151514
C           -4.45862299080168       -1.13933876855603       -0.49513426717086
O           -5.15321388151115       -1.51353303124754       -1.45712813443024
C           -8.07880604790674       -0.65540805449904       -3.88451625456764
C           -4.12709922822576       -1.97041633825487        0.65385259682595
O           -4.68266582844151       -3.21679354760729        0.64666044701386
C           -4.46905884634534       -4.05110901019914        1.75099122802066
C           -3.33975125010479       -1.45706079327610        1.65408171044746
C           -2.82219512346554       -0.16359412841301        1.58946725206050
C           -2.03624878100203        2.42152441711483       -0.96959155832794
C           -1.17734515201666        1.30838114529339       -1.60279697097271
C            0.14000693580394        1.14220877602981       -0.96226937825239
N            0.68964787014813       -0.01870402494478       -0.60911285160466
C            2.06312482520277       -0.07671055143269       -0.17819119490697
C            2.99879211441172       -0.59193315538033       -1.28976121708325
C            4.43275817737670       -0.48840129135572       -0.84753235718726
C            5.14974648344509        0.67295824578031       -1.05974571451353
C            6.46346233116137        0.78856781598629       -0.62563319129294
C            7.07962006917108       -0.25991268619448        0.03281007040654
O            8.35426028419891       -0.25962805238709        0.50332140055114
C            9.14352580343812        0.88856267989742        0.31847375388394
C            6.35590935577016       -1.45620906030741        0.25277248115811
O            7.04480312386989       -2.43288578642679        0.90004879015563
C            6.41699519460457       -3.66766686929497        1.13724964544641
C            5.04763090277873       -1.55104891506710       -0.18555566982706
C           -0.02107842400482       -1.26536162623659       -0.73835546429972
C           -3.81923208798531        3.02790333443631        0.73638807601475
C           -4.42916414455713        2.73559692874447        2.10833655450046
C           -3.48722183865331        4.51450375147633        0.63032501589035
H           -4.19825633017923        0.78348589947868       -1.34032456733119
H           -8.67545508152907        0.07531117531783       -3.41127524405141
H           -8.19237806227186       -1.66365782655274       -3.60404427408791
H           -7.51175798976530       -0.42301859743057       -4.74237476322824
H           -4.88037567040436       -3.63086335465047        2.67422096399494
H           -4.99001088316111       -4.97872524790513        1.52757108558274
H           -3.40317037078252       -4.26074240936283        1.89975207397659
H           -3.10813758144135       -2.05375588876284        2.52326747913550
H           -2.22764080444083        0.19948680403695        2.41310205545606
H           -2.87343654058486        2.60569005056102       -1.64058439834308
H           -1.45030668760651        3.34119274948271       -0.90590986409958
H           -1.74632122301576        0.38038856260300       -1.61120283608250
H           -1.00900783164536        1.59834032712286       -2.65047973446583
H           -0.61593285685172        1.60651908773584        1.13215050637272
H            0.75671372868828        2.01704528137946       -0.83425484041383
H            2.13951085509172       -0.73290917573736        0.69350958923926
H            2.38937759179250        0.92190904576933        0.11797595144000
H            2.84302317347344        0.01365124658815       -2.18475628733193
H            2.74997704641567       -1.62679485426253       -1.52768650112635
H            4.69377180979284        1.50397952390575       -1.57767901296987
H            6.99619824085598        1.70668855451349       -0.81366683727666
H            8.71065405253960        1.76304329283655        0.81563762911392
H            9.29386136381928        1.11016606989794       -0.74323452323193
H           10.10435316168046        0.65559535744322        0.77551961439419
H            7.16112264568236       -4.27705212426884        1.64741353327899
H            5.53789672292951       -3.55932818770174        1.78174340656303
H            6.12615931632417       -4.16015180703582        0.20332773342368
H            4.48866258792559       -2.46061297166526       -0.02731694731007
H           -0.23155195533756       -1.49419198371519       -1.78510207603883
H           -0.96936334703445       -1.22337148288622       -0.19457805161039
H            0.58380500467604       -2.06680087219782       -0.32104581060861
H           -4.57560165339976        2.78702732771856       -0.01975374192657
H           -3.71657287925065        2.96716350292091        2.89331774344095
H           -4.72405797920149        1.69256916255376        2.19200030313088
H           -5.31400637769288        3.35127743747206        2.25055714263609
H           -2.70380070631698        4.77061436184750        1.33618026082092
H           -3.17172857242209        4.78820814277518       -0.37311281877936
H           -4.37339542335850        5.09594129047586        0.87184775582263
H           -0.59754941837096        3.13805034881028        2.89186351073633
