72
 energy: 71.202895384516 xtb: 6.6.1 (8d0f1dd)
N           -1.44820857929867        3.10104981108535        2.29617973893369
C           -1.48757418340261        2.25460665296021        1.37541850212900
C           -2.62608823347381        2.09517585075886        0.42089106307759
C           -3.12764813040802        0.66714923217578        0.47738790983587
C           -3.93806308431404        0.19864592399425       -0.52460896257700
C           -4.52088417257290       -1.10495304363838       -0.54470899480567
O           -5.24408634680588       -1.38808887283176       -1.52022697887126
C           -7.84778752834192       -0.72125925522850       -3.64608383656512
C           -4.18441244292734       -1.95329460173517        0.60143277016263
O           -4.72699660690585       -3.20692614678075        0.60876727204461
C           -4.49210058253944       -4.03326325445194        1.71204650403415
C           -3.38489767233160       -1.45417018403572        1.60180143198892
C           -2.85780447317953       -0.16827644934064        1.55188179312152
C           -2.05650443464905        2.41538603752087       -0.98562147240024
C           -1.18026934596524        1.30490793796930       -1.59913258785519
C            0.15232022130713        1.13923949663212       -0.98625829749399
N            0.68362440813265       -0.01830581771453       -0.59737048574810
C            2.06833615202479       -0.07720421488402       -0.17791459628587
C            2.99565035064688       -0.59175356700205       -1.29474769523579
C            4.43214991521672       -0.48489690386877       -0.85253528727816
C            5.14739655633325        0.67862350285679       -1.06025112335139
C            6.46133490213262        0.79320608863210       -0.62301801966137
C            7.07895672069999       -0.25567849881999        0.03477761781912
O            8.35058010647654       -0.25378404803555        0.50593739491043
C            9.14049441189778        0.89513448488434        0.31864777884980
C            6.35292231303398       -1.45153165739338        0.25522647806517
O            7.03760233033072       -2.42710919595343        0.90530632838405
C            6.40726039473696       -3.66092589485065        1.13986563703168
C            5.04417413590595       -1.54517347138636       -0.18571008275054
C           -0.02539498192624       -1.27200668020100       -0.73111671074403
C           -3.83230386438262        3.03155507890599        0.72220784491171
C           -4.44295171388276        2.73998502809989        2.09020650425012
C           -3.48135435422877        4.51434081258241        0.62156740765247
H           -4.20544561633731        0.82029675263026       -1.37651803769936
H           -8.40352067636526        0.03619226229054       -3.15465987803167
H           -8.07894440127716       -1.74301906108950       -3.47608041086396
H           -7.24035862694829       -0.46140751594660       -4.47158507547285
H           -4.87633573972199       -3.60717285527794        2.64970951783207
H           -5.02421576782871       -4.95917514342075        1.49111626387991
H           -3.42584731661163       -4.25847337042315        1.83053457402702
H           -3.16129810480360       -2.05357765551188        2.46837695031136
H           -2.26707951134045        0.18172485984424        2.37713736064936
H           -2.89605699711749        2.59115283642021       -1.66232534120872
H           -1.47414745683838        3.33491809510132       -0.92891031049053
H           -1.73373819218448        0.36742501712062       -1.62101478111256
H           -0.99719329843024        1.61651546438035       -2.63196973207322
H           -0.63335558669580        1.59733127478061        1.12562895083794
H            0.76928313644124        2.01792406534766       -0.87074363131562
H            2.15510006252277       -0.73555019073745        0.68996325587752
H            2.40273222967123        0.92088369585754        0.11961202039919
H            2.84088693803741        0.01556702985204       -2.18838456402829
H            2.75245924568330       -1.62779235403855       -1.53472575244374
H            4.69073598584057        1.50730873643433       -1.57931632818413
H            6.99484715990970        1.71202848711227       -0.80592111917422
H            8.70585924392486        1.76897099300163        0.81530927716016
H            9.28508156286670        1.11527791511724       -0.74389712737419
H           10.10288102751678        0.66603042178449        0.77290517731738
H            7.14856817413826       -4.27479760341867        1.64939784991152
H            5.52792016111003       -3.55166431680873        1.78327822308233
H            6.11773563331029       -4.15081437953018        0.20429252759151
H            4.48597678547481       -2.45553614192076       -0.02886427246487
H           -0.22069784476893       -1.50644996411981       -1.77869929225163
H           -0.97824549950020       -1.23199691641880       -0.19707216250834
H            0.57673582540117       -2.07181411729349       -0.30522533704879
H           -4.59259735430974        2.80015280202230       -0.03199738493373
H           -3.72236958935943        2.95853658045737        2.87225956344813
H           -4.75101640507285        1.70054624897397        2.16475745615297
H           -5.31917381487589        3.36638452662007        2.23980702312687
H           -2.69818419123842        4.75824529326606        1.33227971470163
H           -3.15938382032003        4.78782288521256       -0.37971373651176
H           -4.35940428319893        5.10744213389276        0.86448674556157
H           -0.61739743627269        3.13126759947286        2.87838983717172
