72
 energy: 64.309612399350 xtb: 6.6.1 (8d0f1dd)
N           -1.49603646071312        2.96124193614249        2.30151018337647
C           -1.51846929744891        2.21868480717174        1.29201999616432
C           -2.68045375518482        2.08107550053379        0.34889914146420
C           -3.21473249124275        0.65759376889738        0.40002304442680
C           -4.08509091815012        0.20951822874060       -0.58743607701161
C           -4.70164708603857       -1.05999438479655       -0.65767974886136
O           -5.49571308410862       -1.34361838063212       -1.66090764510045
C           -7.19726745997598       -0.68232350574618       -3.05526232754655
C           -4.31884959020928       -1.91707156694182        0.49344123438788
O           -4.84565099620845       -3.18670166548071        0.51862664201528
C           -4.56059536539928       -4.05591235431216        1.58138873971778
C           -3.45268542683410       -1.46172752359118        1.47137547494574
C           -2.89030957077061       -0.19327717202604        1.43588003181129
C           -2.11652235969051        2.36991570521493       -1.06685609764293
C           -1.21235145221930        1.26232320548619       -1.64769305226163
C            0.10413310081432        1.13864601588563       -0.96665267767897
N            0.66534296675825       -0.02653766748697       -0.58570644216837
C            2.04331623402550       -0.06745124899525       -0.16914869059183
C            2.97467176717219       -0.57186061932821       -1.28935801872316
C            4.40511582609022       -0.46501583832896       -0.85252167295285
C            5.11964065907935        0.69988721802072       -1.05481144147820
C            6.43224572036990        0.81311349188372       -0.61450569133194
C            7.04747125319498       -0.23771674372935        0.04385862419718
O            8.32139273505677       -0.23541995177032        0.52044673179530
C            9.11143835181766        0.90830351545788        0.31910902181149
C            6.32134168792717       -1.43063095065780        0.26507334335540
O            7.00275760455319       -2.40839342008095        0.92150801786243
C            6.37023721261573       -3.64175647210310        1.14622527909031
C            5.01382660018019       -1.52315593804569       -0.17906228789165
C           -0.03118443969615       -1.28912444944939       -0.68952242834198
C           -3.85255831660963        3.04896428774597        0.66498153565180
C           -4.46712063806966        2.75602884667376        2.03186388897483
C           -3.44838764508780        4.52055231171907        0.59120739633278
H           -4.38925765871203        0.88656148072367       -1.37410550335372
H           -7.74445349957328        0.10777487627822       -2.59453880626176
H           -7.69489364846399       -1.62314036310487       -3.14950143522416
H           -6.58934914767591       -0.37119498328265       -3.87134109398594
H           -4.87673930796877       -3.64993335976372        2.55051275557274
H           -5.13399942847101       -4.96193863738541        1.37374303913792
H           -3.49686982492186       -4.31816865638267        1.63201152826426
H           -3.17205434537099       -2.09492993257137        2.30206782933884
H           -2.22294366757292        0.12231559991188        2.22333360665286
H           -2.95654830454625        2.51249024584883       -1.75179685321244
H           -1.54630674526948        3.29763145210292       -1.03974865456176
H           -1.74989038477712        0.31288511741345       -1.62914472974430
H           -1.04492647590930        1.53696102704518       -2.70048876845512
H           -0.65625280322392        1.62889269332725        0.92707749113613
H            0.75030994411714        2.00753467120454       -0.94438795388560
H            2.15784828073950       -0.70999356644748        0.71211400593175
H            2.35705097221233        0.93827433136991        0.11256032828562
H            2.80949145437157        0.03652796966404       -2.17918698868232
H            2.72370339051651       -1.60665915831337       -1.52736159902308
H            4.66155367053253        1.52861240706699       -1.57246733814193
H            6.96710665921865        1.73155729253068       -0.79776477092995
H            8.68309239488036        1.78626453111284        0.81413543582221
H            9.25022790765704        1.12498305570810       -0.74567879900529
H           10.07674248730994        0.67967037526013        0.76734959979618
H            7.10945906835019       -4.26077354420372        1.65283083415885
H            5.49042271374294       -3.53380128418008        1.78903490405504
H            6.07869715246253       -4.12665551907948        0.20825604083482
H            4.45224348535452       -2.43121924020429       -0.02058042252031
H           -0.22196526309966       -1.56113805010751       -1.73299831086446
H           -0.98867726111423       -1.23756734084314       -0.16237892279093
H            0.56697849158575       -2.07737000433887       -0.23209442615701
H           -4.62129085421760        2.86234162465360       -0.09277228809625
H           -3.73193843541172        2.93737039486533        2.81072280563090
H           -4.80270904343031        1.72361131197244        2.08927974681548
H           -5.32398183817208        3.40654955608347        2.19559861062089
H           -2.66125811748251        4.72358055707890        1.30999420779997
H           -3.10956009877346        4.79628201350769       -0.40376924785900
H           -4.30547116479666        5.14266363080994        0.84006657473411
H           -0.61302981554710        2.99077811603532        2.80961682272671
