72
 energy: -5.153636012594 xtb: 6.6.1 (8d0f1dd)
N           -1.49296962556658        2.78946683114885        2.24226575340527
C           -1.54708431785650        2.15530989661985        1.15977298527039
C           -2.74076153038893        2.06162284146136        0.25364153191101
C           -3.30770005464972        0.65022900601758        0.33188674321118
C           -4.28469600206329        0.24471744109977       -0.58131526520717
C           -4.84060215690949       -1.02002653623581       -0.55491223787779
O           -5.81205649575667       -1.47233623491400       -1.41351790283560
C           -6.45366924576325       -0.62648858809151       -2.35043573118618
C           -4.39326599834918       -1.93491670161797        0.43643995623409
O           -4.97784809010983       -3.16749162693486        0.41766919948996
C           -4.65282710463659       -4.09317187746521        1.42384443429708
C           -3.42776568917749       -1.53368002882202        1.34423298042436
C           -2.88844435700378       -0.25360881680813        1.29037824013313
C           -2.18863081510302        2.30755759446838       -1.17457594147479
C           -1.25931778096334        1.18601018837273       -1.66692204470812
C            0.00973888718572        1.13352726013037       -0.89541185967682
N            0.63692187830520       -0.04613477422540       -0.56184642013469
C            2.00511407123949       -0.03544858093599       -0.15925001894132
C            2.93852079802020       -0.54314498243614       -1.27957691580051
C            4.36301625091799       -0.43607154713424       -0.83901744679310
C            5.07985363134466        0.72821981520871       -1.04301075094583
C            6.39079673355612        0.83944304535858       -0.60379925120946
C            7.00143669158490       -0.21186933635376        0.05595733672918
O            8.27964462368072       -0.21370472722539        0.52739934444713
C            9.07281099386281        0.92599035202265        0.31976483147247
C            6.27459767612575       -1.40346131296976        0.27837590041838
O            6.95745419474095       -2.38567429946589        0.93019654467226
C            6.32151621359093       -3.61735786925369        1.15212816536201
C            4.96955172750028       -1.49616786421717       -0.16457151743545
C           -0.04876476966994       -1.30296823095699       -0.62730943305255
C           -3.86779516510596        3.07435806329889        0.59184620994019
C           -4.49191252254499        2.77330335342512        1.95307298155754
C           -3.39910863014957        4.52808665310057        0.55278691371673
H           -4.63303164193431        0.94267861918164       -1.32470646664133
H           -6.93301696604483        0.24021396660350       -1.87988937118045
H           -7.22406486679090       -1.23287571658382       -2.82514999802459
H           -5.75984519635178       -0.27411145831485       -3.12162016212407
H           -4.88174977360030       -3.70720158114795        2.42297723864713
H           -5.27524135626059       -4.96530542881628        1.22613028031206
H           -3.59872410523917       -4.38863774570215        1.38170931810098
H           -3.08088197228638       -2.20573477945880        2.11616318908978
H           -2.15282338034524        0.03249238205022        2.02757565372852
H           -3.02040656908941        2.39791570612422       -1.87371900733280
H           -1.64122836764582        3.25166422558114       -1.18654962972720
H           -1.79869441515415        0.23960324297725       -1.62399253337749
H           -1.01513163102693        1.39008417557285       -2.71822094300128
H           -0.68149040687062        1.64914950091985        0.66557916995216
H            0.65479655253727        1.99357992058777       -0.94688631239225
H            2.12324299749253       -0.66857408863871        0.72700363033330
H            2.30429983076608        0.98057547773003        0.10921055848547
H            2.76980004471537        0.06481079848136       -2.16993004883708
H            2.68369213430866       -1.57775453651997       -1.51372370473061
H            4.62527207576668        1.55869400294134       -1.56241694043452
H            6.92837757905412        1.75531235569233       -0.79015506002075
H            8.65421091461977        1.80793938623674        0.81658875867470
H            9.20592731030553        1.13867977068230       -0.74652817171566
H           10.03927499020809        0.68985357234653        0.76209770332043
H            7.06105621360070       -4.23913955214979        1.65448173181979
H            5.44313148607014       -3.51053952094353        1.79803210396534
H            6.02642102363013       -4.09708055241439        0.21247454142113
H            4.40583537194791       -2.40307542428283       -0.00717982602907
H           -0.22214167542237       -1.61733041214367       -1.66274407776843
H           -1.01401092778173       -1.24193174219396       -0.11525305894425
H            0.56029305788016       -2.05640349004738       -0.13295508658806
H           -4.64355451615917        2.94729420242483       -0.17226967088498
H           -3.75374987115460        2.90570729048668        2.73775304747684
H           -4.86666924600552        1.75321579616190        1.99027956972723
H           -5.32214977730987        3.45241114219294        2.13276280742168
H           -2.60613782309352        4.68977022335859        1.27662212828994
H           -3.04599389761760        4.81394931448715       -0.43488639192934
H           -4.23171307384587        5.17899634862874        0.80992806391857
H           -0.60007348752736        2.78825071925886        2.73294163846789
