72
 energy: 70.251794892909 xtb: 6.6.1 (8d0f1dd)
N           -1.44912359434102        3.10982195341061        2.31601864134235
C           -1.46884544703801        2.27017943408425        1.38737960602919
C           -2.61069061779687        2.10104163659121        0.43776390200668
C           -3.11502018276039        0.67201115332131        0.50721559920497
C           -3.91193869947148        0.18739288181229       -0.49679086920436
C           -4.47696815932793       -1.12616573891549       -0.50772636723790
O           -5.18092653023624       -1.46836573483766       -1.47501712923890
C           -8.00120525867015       -0.67562548390423       -3.80539214703359
C           -4.14467247622952       -1.96491795176406        0.63762726849142
O           -4.69270776161652       -3.21471876255958        0.63852623460970
C           -4.47015130179713       -4.03918932674385        1.74596995531251
C           -3.35461011156177       -1.45615579793330        1.63852195737800
C           -2.83522342259009       -0.16460811651866        1.58178763349785
C           -2.03802230173179        2.42525959448297       -0.96760525239425
C           -1.17783865095676        1.31067489812582       -1.59903940504307
C            0.14560267168166        1.14156441256536       -0.97407163020476
N            0.68676888931908       -0.01621886625217       -0.60644681955486
C            2.06414250684896       -0.07509626251463       -0.17853482798410
C            2.99820891101090       -0.59250560723856       -1.28992209099398
C            4.43328255919520       -0.48757618113173       -0.84621983106016
C            5.15111978970878        0.67291231228575       -1.06065154309869
C            6.46557678515932        0.78701918499597       -0.62744840213477
C            7.08162634307475       -0.26052337630869        0.03141357785064
O            8.35414552084955       -0.25822852175822        0.50439355051816
C            9.14499245172283        0.88998241425485        0.31885100791988
C            6.35748573784644       -1.45708070833098        0.25119684353090
O            7.04464213156119       -2.43211652323242        0.90109215525197
C            6.41680714509367       -3.66752545000858        1.13801319050966
C            5.04890464265389       -1.55098663844932       -0.18669765816916
C           -0.02308171294852       -1.26430837068432       -0.74004075331088
C           -3.82399804744498        3.02676372138753        0.73639963090879
C           -4.43504302535507        2.73564255400011        2.10573112935866
C           -3.49017393491182        4.51313671602055        0.62990239860206
H           -4.18502650163547        0.79788949533108       -1.34912360703111
H           -8.58450409379643        0.06205934401794       -3.32287356232226
H           -8.17927436160952       -1.69122167487565       -3.58006577993097
H           -7.41780762915016       -0.43308791443679       -4.65086261739838
H           -4.87611086083965       -3.61707470645658        2.67268612383634
H           -4.99260522058435       -4.96636613011659        1.51995913124072
H           -3.40278300584280       -4.24674604418545        1.88385205121463
H           -3.12590706672273       -2.05512579231544        2.50563789549064
H           -2.24251024778470        0.19348250799571        2.40570373716533
H           -2.87624357111227        2.60928474625429       -1.64048024993326
H           -1.45447068884723        3.34707910488808       -0.90275138461662
H           -1.74469867407398        0.37945945753316       -1.61392251261932
H           -1.00692528353717        1.61245415109200       -2.64262406724661
H           -0.62176587025717        1.59927844915549        1.15576889374992
H            0.76386831050972        2.01589129568693       -0.84418545841896
H            2.14303789338193       -0.73412878020014        0.69071467653728
H            2.39439524618409        0.92252071965173        0.11954171438133
H            2.84644480744346        0.01109978110837       -2.18689452679038
H            2.75309464197295       -1.62842760733982       -1.52915443054729
H            4.69651555458898        1.50252926336334       -1.58029625792725
H            6.99924545948106        1.70540988430705       -0.81250668279635
H            8.71164027915912        1.76416945385700        0.81627386951329
H            9.29416447017220        1.11108493713902       -0.74292935917358
H           10.10578016247832        0.65843220539275        0.77573075898464
H            7.16088182682326       -4.27707283583003        1.64829102258538
H            5.53816087523505       -3.55855276657938        1.78225618109867
H            6.12879304423840       -4.15948160034247        0.20315889704108
H            4.49289218240064       -2.46265437215398       -0.02955001284387
H           -0.22541849460066       -1.49189355209467       -1.78851636740320
H           -0.97265552144323       -1.22654130131847       -0.19861901294457
H            0.58496756535465       -2.06363492477879       -0.32378148674213
H           -4.58197084324281        2.78256211157978       -0.01642207363562
H           -3.72083983413329        2.96437514231102        2.89033601439526
H           -4.73518947757248        1.69389807513457        2.18594112374580
H           -5.31753259055265        3.35400100683055        2.25155508253246
H           -2.70776631401095        4.76964126655637        1.33703825687498
H           -3.17506286516540        4.78781587443405       -0.37363285725560
H           -4.37482184670939        5.09668216844859        0.87204428005733
H           -0.60626073695733        3.15279718364281        2.88109504311714
