  72
        -99.28912739
 N         -1.8002701286        2.8414175569        2.4505567203
 C         -1.7979352572        2.1964939831        1.3791676943
 C         -2.9759619596        2.0560676728        0.4552126490
 C         -3.4178690900        0.6006289339        0.4135651521
 C         -4.3459054200        0.1731931233       -0.5388115340
 C         -4.8014281103       -1.1341820464       -0.5670166942
 O         -5.7085576398       -1.6292353250       -1.4383376682
 C         -6.3674408529       -0.7542355233       -2.3221196933
 C         -4.3057677400       -2.0705615232        0.3780235616
 O         -4.7989223835       -3.3238151029        0.2709041274
 C         -4.4158563429       -4.2876053922        1.2227649228
 C         -3.3863635428       -1.6412659350        1.3200229035
 C         -2.9533627656       -0.3209557262        1.3382202949
 C         -2.4718515402        2.5091063422       -0.9394340135
 C         -1.5395185938        1.5078777969       -1.6483945264
 C         -0.1908691931        1.4160231740       -1.0450297382
 N          0.4527323402        0.2785675302       -0.7615680258
 C          1.8337844893        0.2953982409       -0.3503714538
 C          2.7714547418       -0.1672916680       -1.4834727291
 C          4.1988327239       -0.1639050394       -1.0192512911
 C          5.0465708581        0.9020525404       -1.2903738910
 C          6.3650717021        0.9131090271       -0.8582965676
 C          6.8641164547       -0.1555933614       -0.1247613149
 O          8.1310848026       -0.3013634922        0.3549501082
 C          9.0722830972        0.7206161351        0.0882013473
 C          5.9986553698       -1.2159283550        0.1640116404
 O          6.5344410779       -2.2887112417        0.9512244709
 C          6.2855670307       -3.6641265996        0.5143927645
 C          4.6904951831       -1.2342052681       -0.2754990814
 C         -0.1916872597       -1.0076117735       -0.8733760451
 C         -4.2004397614        2.9182341423        0.8815732371
 C         -4.7581954328        2.4702529243        2.2306983889
 C         -3.8936573907        4.4129578791        0.9231830846
 H         -4.7312079705        0.8780987422       -1.2573537550
 H         -6.8917156100        0.0411819442       -1.7837050501
 H         -7.0933427766       -1.3685655834       -2.8515874029
 H         -5.6751641786       -0.3121934974       -3.0461157188
 H         -4.6801951658       -3.9767320875        2.2379662059
 H         -4.9697394279       -5.1885405530        0.9664263000
 H         -3.3421840906       -4.4967791750        1.1728990545
 H         -3.0075190646       -2.3226755385        2.0641735811
 H         -2.2640199858       -0.0152829922        2.1100975917
 H         -3.3333870969        2.6775839402       -1.5850814285
 H         -1.9505198436        3.4608010912       -0.8294928303
 H         -2.0223537558        0.5341124500       -1.6987036929
 H         -1.4171735791        1.8754511549       -2.6758715835
 H         -0.8995487233        1.7020921015        0.9646718548
 H          0.3810257409        2.3269246021       -0.9547508984
 H          1.9593094816       -0.3630311217        0.5148518062
 H          2.1106607730        1.3079949909       -0.0500806075
 H          2.6516690749        0.5028907347       -2.3354390266
 H          2.4875085921       -1.1733293411       -1.7949719915
 H          4.6830885461        1.7402119968       -1.8643488616
 H          6.9948199327        1.7520667821       -1.1013142426
 H          8.7660831964        1.6645785702        0.5449255021
 H          9.2124051678        0.8559325156       -0.9867778576
 H         10.0040743265        0.3847275449        0.5378778634
 H          7.5009180611       -2.1482106074        0.9812049653
 H          5.3223208098       -3.9877515668        0.8829270023
 H          6.4252514013       -3.7925248179       -0.5508524346
 H          4.0702366335       -2.0874085219       -0.0507739771
 H         -0.4132027773       -1.2515946310       -1.9144150947
 H         -1.1251007601       -1.0173740446       -0.3043747728
 H          0.4653805579       -1.7741448118       -0.4707521060
 H         -4.9761327876        2.7506286698        0.1256544301
 H         -4.0234446112        2.6389692519        3.0107069053
 H         -5.0234577943        1.4158888942        2.2161357372
 H         -5.6505325873        3.0442787288        2.4648302262
 H         -3.1006369143        4.6130632187        1.6369773428
 H         -3.6050525252        4.7959044064       -0.0520037164
 H         -4.7825253712        4.9514377871        1.2415690808
 H         -0.9277450296        2.8875674878        2.9677956003
