  25
        -42.16866748
 C          3.3101115259        0.5701138692        0.0827725467
 N          2.2890724185       -0.2865130968        0.0646763920
 C          2.3384722224       -1.6291979937       -0.1359871540
 N          1.0780460704       -2.1325958105       -0.1512465502
 C          0.2065508211       -1.0967106321        0.0477641375
 C          0.9560285798        0.0444449074        0.2144207405
 C          0.3593549929        1.4203170376        0.3355447871
 O          0.9018832690        2.2949414168       -0.4577460361
 N         -1.1176174698        1.2533639626        0.1099874015
 C         -1.8222530046        2.5076463320        0.0019297868
 C         -1.8447404996        0.1098886984        0.0402539036
 O         -3.0512640482        0.1025922345       -0.0423660748
 N         -1.1455613744       -1.1214262676        0.0480527356
 C         -1.8958683438       -2.3517314365       -0.0567043251
 H          0.4210591556        1.7570405500        1.4095740086
 H          4.3105481236        0.2043933723       -0.0468148701
 H          3.0895138720        1.6201469154        0.1495869794
 H          3.2335615507       -2.2011127743       -0.2679502549
 H         -1.1800589264        3.2055352690       -0.5414065676
 H         -2.7630062224        2.3566631173       -0.5258643587
 H         -2.0331383636        2.9200554595        0.9931477074
 H         -1.6260509316       -3.0326380562        0.7515341012
 H         -1.7251655270       -2.8330832461       -1.0222380311
 H         -2.9535981817       -2.0987904500        0.0232322561
 H          0.8464751068       -3.1046972491       -0.2929878180
