25
 energy: -42.090378034096 gnorm: 0.005586130350 xtb: 6.6.1 (8d0f1dd)
C            3.16010934635803        1.09847714938991        0.02991638539197
N            2.19546296211697        0.03356759362542        0.01121911136918
C            2.47660091580736       -1.27212533513391       -0.00086686556356
N            1.30118622682036       -1.94508110170179        0.00160954235540
C            0.26097015722511       -1.06077527797129        0.01320144088865
C            0.83138452101327        0.20740822904702        0.01972476114520
C            0.01459569656557        1.40005560749738        0.00593789253948
O            0.42014106026279        2.53917715277883       -0.00778092187034
N           -1.34620355594354        1.08837474734840        0.00270385456236
C           -2.28707575443336        2.19697958040274       -0.01117177363447
C           -1.92900313750886       -0.16856180929116        0.00466824263740
O           -3.12100782207566       -0.31723113538534        0.00033373531338
N           -1.06531677778547       -1.27771259410958        0.01047694906375
C           -1.62997864496387       -2.61077396919426        0.00371402059480
H            3.65532459505592        1.14069067937082        1.00180260486879
H            3.91618356134541        0.92696597779223       -0.73554402448105
H            2.65387156351558        2.04591637293571       -0.15075903420408
H            5.33923319902546       -1.83965199603128       -0.12532365458278
H           -1.72039259065200        3.12590300926137       -0.00606541064660
H           -2.91429219071117        2.14020471516428       -0.90190472128928
H           -2.93647257068486        2.14280850839123        0.86351629836579
H           -1.31273524477399       -3.16230500907858        0.88966493601700
H           -1.32583367444632       -3.14842793560197       -0.89540309579453
H           -2.71536705157657       -2.51269579410801        0.01169616382668
H            1.23904672454382       -2.95294882379815       -0.00419481897312
