  25
        -42.17264524
 C          3.3032316591        1.0330700379       -0.0284115150
 N          2.2674441081        0.0373409571        0.0110865668
 C          2.4413873172       -1.2927264846        0.0426117421
 N          1.2305523830       -1.9101668729        0.0489810513
 C          0.2662120759       -0.9360703136        0.0236007101
 C          0.9185148617        0.2907694108        0.0056071020
 C          0.2119877312        1.5520866357       -0.0178393079
 O          0.7033076473        2.6642853685       -0.0748236138
 N         -1.1669432327        1.3474780532        0.0387381138
 C         -1.9727668046        2.5503760321        0.0220408158
 C         -1.7737161261        0.1372754751        0.0883616941
 O         -3.0937446948       -2.2276444881        0.0033225665
 N         -1.1029929733       -1.0529244031        0.0108012744
 C         -1.7407754050       -2.2303291397       -0.1294477663
 H          3.9638667802        0.9276765620        0.8316132611
 H          3.8928089461        0.9291956412       -0.9401816923
 H          2.8363592450        2.0172189781       -0.0130745063
 H          3.3856646134       -1.7949785043        0.0545246381
 H         -1.7928963621        3.0859490702       -0.9103656422
 H         -3.0255548948        2.3065625195        0.1138581835
 H         -1.6638389298        3.2022893123        0.8389907014
 H         -3.4996525838       -2.8630590778       -0.6048065914
 H         -1.1830596431       -3.1503299716       -0.0893551850
 H         -2.8449076035        0.0877028230        0.1519705797
 H          1.0997638646       -2.9077225074        0.1009156001
