25
 energy: -42.146671760566 gnorm: 0.007860756028 xtb: 6.6.1 (8d0f1dd)
C            2.98530257776333        1.25112748681316       -0.23006245060424
N            2.24757989811382        0.02112896486783       -0.13533751506219
C            2.75634842730615       -1.18913600136747       -0.22445207153414
N            1.79092476741951       -2.10445547058667       -0.15609770057801
C            0.54193526758446       -1.49484206312893        0.01395295784314
C            0.85287880962011       -0.07487280633339       -0.02922576361352
C            0.07980771498801        1.08566628501702        0.07680555064624
O            0.36659981968789        2.22762176635244        0.31021192195232
N           -1.42717901160327        0.85270048446804       -0.25294825781769
C           -2.37996942761490        1.57183212001996        0.58678624122450
C           -1.65057657532559        0.42112458443889       -1.40347878543385
O           -1.69784963972750       -0.03704876639145       -2.46065672026674
N           -0.45268968046732       -2.26400062445390        0.19522643567263
C           -1.79204406858085       -2.00591091601609        0.57205642142904
H            2.82571500407063        1.86098081976587        0.65955873066100
H            4.04504173512537        1.03084314834103       -0.33652815688914
H            2.64828615426234        1.82641642707911       -1.09395857783139
H            3.80239751631229       -1.40596960487258       -0.33530405696972
H           -1.93799424080129        2.53563445724670        0.84488696589730
H           -3.31944304397748        1.72143313045213        0.06187416174380
H           -2.55207251185979        0.99973021040501        1.49870360039952
H           -2.18687512550257       -2.93985142345732        0.97620754685843
H           -2.41485170342558       -1.73535898208736       -0.28619064106672
H           -1.87237745068627       -1.22925466029539        1.33753269339358
H            1.90153630141970       -3.10730002467683       -0.15839091215048
