  72
        -99.29262357
 N         -1.7661274738        2.7084288457        2.5031159173
 C         -1.7678460743        2.1006051262        1.4129638265
 C         -2.9421503847        2.0289569090        0.4756266951
 C         -3.4717547060        0.6037648968        0.4353967268
 C         -4.4336220100        0.2488224632       -0.5126892862
 C         -4.9528999889       -1.0338499625       -0.5724720028
 O         -5.8882249138       -1.4555347151       -1.4468236463
 C         -6.4868754869       -0.5262044848       -2.3196159820
 C         -4.4888144257       -2.0203637592        0.3405436064
 O         -5.0346738874       -3.2436344239        0.1989246690
 C         -4.6688620233       -4.2668453763        1.0953587907
 C         -3.5397373733       -1.6590525847        1.2836360387
 C         -3.0415506429       -0.3629018518        1.3313900859
 C         -2.4007992974        2.4347744707       -0.9209837083
 C         -1.5538817062        1.3552945552       -1.6202541417
 C         -0.2164024316        1.1705672250       -1.0164494920
 N          0.3568926030        0.0062968162       -0.7493958116
 C          1.7392855532       -0.0536240773       -0.3369554091
 C          2.6645183920       -0.5088270445       -1.4846889178
 C          4.0965839790       -0.3998722107       -1.0502201658
 C          4.7741205805        0.8188041387       -1.1776492208
 C          6.0639568357        0.9629731499       -0.7502720332
 C          6.7951825299       -0.1142406119       -0.1446271195
 O          7.9579395653        0.0007230987        0.2573709960
 C         11.1181546706        2.1912279137        0.7109188759
 C          6.0591681213       -1.3841956223       -0.0317809411
 O          6.7746706228       -2.3670149796        0.5238175561
 C          6.2194287324       -3.6510855166        0.6758774547
 C          4.7527214972       -1.4852784242       -0.4741611101
 C         -0.3340621096       -1.2490431157       -0.9259382179
 C         -4.1105209098        2.9752737091        0.8839947527
 C         -4.7397243938        2.5480274496        2.2077698934
 C         -3.6959993581        4.4420417145        0.9590907594
 H         -4.7912821912        0.9920997968       -1.2056094795
 H         -6.9722103537        0.2850874268       -1.7689113207
 H         -7.2387902200       -1.0869466782       -2.8711999965
 H         -5.7603365565       -0.1088753952       -3.0243565874
 H         -4.9180524844       -4.0039811831        2.1275641754
 H         -5.2474666003       -5.1381935208        0.7953493375
 H         -3.6014109861       -4.4992642545        1.0246037774
 H         -3.1867330441       -2.3791801187        2.0037630515
 H         -2.3269376169       -0.1129042779        2.1000913392
 H         -3.2448923051        2.6711106217       -1.5677598569
 H         -1.8039426352        3.3414870677       -0.8154728791
 H         -2.1108265700        0.4210565314       -1.6626565547
 H         -1.3998459961        1.6991764559       -2.6513096825
 H         -0.8838849879        1.5787815607        0.9979039884
 H          0.3995076075        2.0506309256       -0.8994814271
 H          1.8337186213       -0.7473501444        0.5029916781
 H          2.0580536768        0.9351197746       -0.0008094804
 H          2.4901689916        0.1364734328       -2.3480036448
 H          2.4267529665       -1.5356209752       -1.7649811669
 H          4.2690070640        1.6584704088       -1.6343009459
 H          6.5891552507        1.8993305939       -0.8541607434
 H         10.7474907204        2.9547787454        1.3620347744
 H         11.3213681311        2.4141441431       -0.3153523727
 H         11.3108928388        1.2109622763        1.0923530493
 H          6.9996692406       -4.2565868774        1.1333214515
 H          5.3433424878       -3.6330790746        1.3321211504
 H          5.9434668160       -4.0839485201       -0.2907080086
 H          4.2256673334       -2.4247036201       -0.3874684852
 H         -0.5045884518       -1.4600249293       -1.9838540270
 H         -1.2970241011       -1.2306687981       -0.4102620227
 H          0.2673380785       -2.0507958946       -0.5051726697
 H         -4.8737692463        2.8794783903        0.1032369542
 H         -4.0173323588        2.6444201297        3.0118915383
 H         -5.0858047092        1.5181235861        2.1649816553
 H         -5.5910530174        3.1862872827        2.4287508916
 H         -2.9248955346        4.5783436586        1.7110404058
 H         -3.3349735778        4.8124022455        0.0033085330
 H         -4.5566742623        5.0412214566        1.2441972897
 H         -0.9089191031        2.7152904518        3.0465252231
