72
 energy: 37.432915890241 xtb: 6.6.1 (8d0f1dd)
N           -2.02933910573041        3.13632380498474        2.58845164281292
C           -1.86617355393219        2.44075728201605        1.56113922655617
C           -2.84067481508274        2.23523058529218        0.45894377337415
C           -3.21787787149494        0.62379237401050        0.87212452656692
C           -4.16779588945479        0.19948212433171       -0.09512324640585
C           -4.54434124567440       -1.10466820135393       -0.32878286727114
O           -5.42866511792258       -1.52824590731281       -1.31785077578092
C           -5.98681483210583       -0.57840549937057       -2.21826613051155
C           -4.05830405072097       -2.04705831694980        0.62595344099706
O           -4.54107623312694       -3.29648840280143        0.37161268878365
C           -4.13410590628301       -4.29074403085805        1.24649932184158
C           -3.31053652190356       -1.62583171647501        1.77077878648969
C           -2.78055943754012       -0.31136733811364        1.80761621735902
C           -2.12677697643883        2.35662455902626       -0.90542780558432
C           -1.35547083523941        1.14855794105324       -1.46010738280435
C           -0.05719629879579        1.01388874699795       -0.74085743108204
N            0.51309264788963       -0.22698791065004       -0.48978931080559
C            1.92387028274584       -0.24234937731296       -0.17174703517262
C            2.85022192882660       -0.50568161187847       -1.38477176570382
C            4.28964832034815       -0.44173238802255       -0.93918658162220
C            5.01543851032105        0.72916991317354       -1.04433420349815
C            6.33498965494315        0.78723342392074       -0.59379010434765
C            6.94501498666717       -0.29462031298656        0.01716404720809
O            8.22472877761788       -0.32465406174453        0.49532685227672
C            9.03074319821096        0.81316564259409        0.31640269993371
C            6.20314162430540       -1.48190263998757        0.17770941908292
O            6.86618187086626       -2.48776694117733        0.83082372578483
C            6.18030361395193       -3.69386197468356        1.03093178988900
C            4.90486894333927       -1.53718899854166       -0.31108137820520
C           -0.28582020020136       -1.42194149281677       -0.46198016667428
C           -4.01716121963452        3.25221998404402        0.40151559927914
C           -4.74904319244010        3.10916543042320        1.74365572822641
C           -3.52119018184972        4.68345830056330        0.19769092903385
H           -4.63465400146106        0.94366793421027       -0.70451395502863
H           -6.56608521915200        0.19401947367477       -1.70449466087030
H           -6.64072772599099       -1.11066343293253       -2.90913112868796
H           -5.20116651244024       -0.09423602218443       -2.80625197305031
H           -4.37325164255876       -4.03974516609207        2.28087423056187
H           -4.65472633491131       -5.19673784992114        0.95420104954161
H           -3.05793158288277       -4.41197207336006        1.14971881618393
H           -3.40528134543641       -1.98823324550200        2.80883042631785
H           -2.20088604093921       -0.06006142805409        2.68084161084898
H           -2.88067813141935        2.61206293801299       -1.66100927256592
H           -1.43184586761587        3.19665253530992       -0.82348573995476
H           -1.95314022602768        0.25609712436151       -1.31057181747757
H           -1.24985766826414        1.30242257019982       -2.55396815761511
H           -0.97377769773431        1.82599927492929        1.40857337343130
H            0.69993957234609        1.70015381415631       -1.14487629289803
H            2.10812336372792       -0.95340432367705        0.62807323964675
H            2.22130854997781        0.72911086973924        0.23071502447568
H            2.65095625499780        0.27312778380897       -2.12545898820133
H            2.64536946380102       -1.50043905439696       -1.78765334239703
H            4.57305219745693        1.61260413816580       -1.48653084600124
H            6.89179687595387        1.70807120714893       -0.71168995476548
H            8.62600058461932        1.68690593697941        0.84235469044283
H            9.14658148349605        1.05929915287371       -0.74433631730472
H           10.00344502474749        0.56375253845026        0.73648527924549
H            6.88301547012355       -4.35657812437762        1.53767508591809
H            5.30507195906397       -3.54290540252388        1.67130608800554
H            5.86721144399787       -4.13837762663368        0.07905415077199
H            4.33369337087725       -2.44367249418740       -0.19888747881024
H           -0.74003559147977       -1.57048353642162       -1.45267803481295
H           -1.01813704284908       -1.39764364686661        0.38366500268749
H            0.35376590611320       -2.28881575497929       -0.31101878979272
H           -4.64643342922645        3.01793759144270       -0.47608213527817
H           -4.02467739733170        3.31179109875208        2.54076151133660
H           -5.12894516905311        2.10129648931458        1.87134291791537
H           -5.58842405833881        3.77678091141165        1.84195716392355
H           -2.78445410551418        4.92841597858724        0.96082171427471
H           -3.08554091948030        4.84272743880581       -0.79378034326061
H           -4.36978347879985        5.34918091986397        0.32335626697884
H           -1.26709973108840        3.08725397119688        3.25896232460868
