72
 energy: -6.355858410727 xtb: 6.6.1 (8d0f1dd)
N           -1.54798238878931        2.83137239681988        2.28051782589258
C           -1.58649982534822        2.17199250361343        1.21309561793257
C           -2.76315253672141        2.08008668001826        0.28678845375718
C           -3.32496013053083        0.66715376831928        0.41300000791336
C           -4.29501135963283        0.24635477964517       -0.50476551549222
C           -4.81263204246557       -1.03304753863741       -0.50057684975503
O           -5.77513417993657       -1.49720572426765       -1.35603975402622
C           -6.34183206825822       -0.60364124391087       -2.28239625847630
C           -4.35127167367935       -1.95422734690013        0.46772575161428
O           -4.93703859825726       -3.18748953530755        0.40324050288099
C           -4.59251210837606       -4.12898772013486        1.38302313303720
C           -3.41548823370099       -1.53667528227220        1.40374281801802
C           -2.89668257483262       -0.24334463473150        1.36331478764507
C           -2.19337404571131        2.30144897065388       -1.14948823573734
C           -1.26550778425700        1.18406486863386       -1.66798759207825
C            0.00647880001164        1.12085374353555       -0.89879928454555
N            0.62841506233063       -0.06448117972500       -0.55276505590509
C            2.00097019613137       -0.05912856460873       -0.15893481698652
C            2.93452869989836       -0.54252983536286       -1.29073533904851
C            4.36093226820049       -0.43688321503444       -0.85279552577263
C            5.07743676678936        0.72912354189288       -1.04508479688239
C            6.38687762395939        0.83748777505009       -0.59993768435856
C            6.99624770358589       -0.21794242503062        0.05601464931721
O            8.27587111377439       -0.22357594246059        0.52830481291550
C            9.06747584428387        0.91564116200724        0.31970787751292
C            6.26930787324387       -1.40909866622719        0.26973415569400
O            6.94725841289279       -2.39625164922678        0.92479424313988
C            6.29898731567305       -3.62379007825084        1.13753155570875
C            4.96675605676695       -1.49907995859643       -0.18163028399419
C           -0.06555888301175       -1.32162712650234       -0.59886320140369
C           -3.89473167333685        3.10163684307301        0.56079982978410
C           -4.52744855006380        2.82307923115809        1.92140818814171
C           -3.41641218975928        4.55020843574271        0.50350559029761
H           -4.65408875143661        0.94810153081412       -1.23462188550047
H           -6.81063861725738        0.25431176028896       -1.78747782360136
H           -7.10394237197512       -1.16948896404986       -2.81578116316940
H           -5.60259625081094       -0.24194861777058       -3.00400455456654
H           -4.81179665688218       -3.75936011582227        2.38955352023490
H           -5.20451176852782       -5.00561373899955        1.17838321852865
H           -3.53360467816539       -4.39946115128413        1.32385733437665
H           -3.08009212503542       -2.17354381451090        2.21366620814855
H           -2.15408216039525        0.02439482669172        2.09775003895672
H           -3.02145442435889        2.41497366573420       -1.85432679277312
H           -1.62853156355925        3.23603944800735       -1.15613195374346
H           -1.80394649354997        0.24021268117619       -1.62034375056777
H           -1.03513276491115        1.38585865393890       -2.72789003503018
H           -0.72124661887698        1.64366001257736        0.76088547042801
H            0.65863025601077        1.97849506621428       -0.98428913246069
H            2.12783289718552       -0.69628741359807        0.72395445823368
H            2.29105900992086        0.95627028850351        0.11372869918787
H            2.74880699071811        0.08876017722910       -2.16161429605605
H            2.68218637088997       -1.57321124108680       -1.54686288179324
H            4.62012796158591        1.56585419858621       -1.55089699012091
H            6.92369646382521        1.75606778527753       -0.77817793073671
H            8.64625559368705        1.79518547579135        0.81834617488402
H            9.19283364435590        1.13132459788677       -0.74685921639369
H           10.03710188310344        0.68640573886568        0.75788682547409
H            7.03114764730158       -4.25490087038108        1.64068647775575
H            5.42007678082257       -3.50917520736403        1.78133479409154
H            5.99916314786794       -4.09430758031142        0.19488211637764
H            4.39919536051692       -2.40341044147837       -0.03078642667825
H           -0.28206532572080       -1.62578047593461       -1.63095447328697
H           -1.01029253212633       -1.26291617903606       -0.04164341351757
H            0.54857349053199       -2.08896542137429       -0.13018650392151
H           -4.65322754449467        2.96818405770837       -0.21708269394700
H           -3.77373502673934        2.95237065004693        2.69513944197381
H           -4.90513709129612        1.80560776818858        1.96210875731337
H           -5.35613646881002        3.50319193291251        2.10258658227773
H           -2.62532535872133        4.69799769084185        1.23076806953620
H           -3.04697633029728        4.81744764028809       -0.48523671931529
H           -4.24466340334307        5.21210089134808        0.74917954791188
H           -0.67963936338891        2.79522275659374        2.80769749854603
