72
 energy: 80.016993254994 xtb: 6.6.1 (8d0f1dd)
N           -2.19063490883250        2.24058755044079        2.40838393631870
C           -2.40824076422855        2.75167296475364        1.32435858365721
C           -2.81346369242296        3.05971356740648        0.12528346522514
C           -3.43975423923003       -0.70933598626204        1.85932566248462
C           -4.04792451016603       -0.33243380752217        0.57173421905149
C           -4.35209733761193       -1.46072013065444       -0.12950450898115
O           -4.90212756987613       -1.59820812152256       -1.36643438767397
C           -5.35478026541906       -0.42128195856151       -1.97730714320779
C           -3.78312530920639       -2.60087394113850        0.54648566926438
O           -3.83314878139028       -3.84953987272680        0.04604430349980
C           -3.14811594526454       -4.80700425683456        0.81429878645282
C           -3.32544720979601       -2.20707617649277        1.78459696546904
C           -2.11134751190904       -1.45489266002502        2.07231053448622
C           -1.99080500745889        2.75823919261431       -1.11184570921971
C           -1.48399794887677        1.31002171769159       -1.18127628306822
C           -0.18754479623946        1.09803553802112       -0.41006220161533
N            0.36835100092996       -0.22281317897814       -0.51196784682424
C            1.72803027630474       -0.35554774952063       -0.07866598632419
C            2.66695362621513       -0.35493659557604       -1.29827160042601
C            4.10290168499890       -0.35264089673467       -0.87836338419642
C            4.87752606880499        0.78506873561820       -0.98292837627073
C            6.20545246341681        0.78140654920318       -0.57677665747552
C            6.77441603111637       -0.36057079857781       -0.04600543804223
O            8.06298393146268       -0.48009217094913        0.38224980201381
C            8.91512136672871        0.62934006272843        0.26445669924351
C            5.98647787492757       -1.52782988319511        0.07707689864989
O            6.62646896297421       -2.60382247683430        0.61250552323541
C            5.91571118121285       -3.80459002450840        0.76938360277420
C            4.67137789004734       -1.50899633530342       -0.34297726605914
C           -0.38688033606357       -1.34887046311072       -0.69933845957758
C           -4.06487854488745        3.89431378750867       -0.05047115127691
C           -4.93369561368141        3.81441026713471        1.20047384836979
C           -3.69200933868769        5.35455805474003       -0.35503794800514
H           -4.37230987658917        0.66606037255053        0.34705578060273
H           -6.14833427741369        0.05417589172302       -1.39068402157308
H           -5.74833356836221       -0.71775760578387       -2.94873258944400
H           -4.54104165824844        0.29558482864727       -2.11654720843889
H           -3.45721984413454       -4.77725428580173        1.86761786095114
H           -3.41405223279321       -5.75822237572299        0.36496271838205
H           -2.06461055432185       -4.65857664327292        0.76951910598173
H           -3.87883831093361       -0.27602031414890        2.76004088405505
H           -1.73759967965165       -1.38294532920792        3.08211144222787
H           -2.63103246775345        2.94142982209949       -1.97901672893748
H           -1.13534870766306        3.44219127487636       -1.20175268419252
H           -2.25386588551969        0.65470366560013       -0.77852918699054
H           -1.29591011872677        1.04571301944543       -2.22432195901559
H           -0.35298901981654        1.31045325912637        0.65559018574829
H            0.56190856473457        1.79733806285411       -0.80309808065991
H            1.85134334201717       -1.28208820814166        0.48665057971304
H            1.98447882867515        0.48030189748138        0.57968317266925
H            2.45029569242385        0.53073206584465       -1.89726910246088
H            2.44669881712283       -1.23686874662412       -1.90530842259849
H            4.45675893761620        1.69028835008069       -1.39445271795443
H            6.78739476867245        1.68246201417289       -0.68486261950495
H            8.56027056540513        1.47993906889089        0.85663935745703
H            9.03619854827285        0.93951902356977       -0.77911739477268
H            9.87698808461134        0.29848387387045        0.65358490804412
H            6.62337594928294       -4.50351656630524        1.21281260519861
H            5.05834411279318       -3.68606869983143        1.44133494520570
H            5.57167431105965       -4.20269528938552       -0.19125579902078
H            4.06421982412616       -2.39755817432362       -0.26866690489156
H           -1.36095356301484       -1.25826458739606       -1.12009130775088
H           -1.33454043153387       -1.44984346477477        1.30362497452896
H            0.13456512473903       -2.28119062737923       -0.73971914625053
H           -4.62572379567719        3.49395698677631       -0.90421924430347
H           -4.43327623231835        4.26034348871306        2.05912527508777
H           -5.16929264074867        2.78249959142657        1.45705086159341
H           -5.85902469147877        4.35142299971102        1.02654863287662
H           -3.12433970300262        5.77871359750846        0.47383079894262
H           -3.07987956492277        5.40786874951718       -1.25127650269932
H           -4.58762487338927        5.95510901782895       -0.50908122601440
H           -1.65537952711975        2.74091502323504        3.10184388962291
