72
 energy: 25.108550972322 xtb: 6.6.1 (8d0f1dd)
N           -1.95621860908589        3.12349178677278        2.56157089857761
C           -1.85265355240263        2.40830197882843        1.54537783708069
C           -2.84736551603736        2.20762962922361        0.46183857555176
C           -3.25871084479581        0.67022805828270        0.82321719583241
C           -4.18378817675575        0.21758028231836       -0.15678434407758
C           -4.58692547815593       -1.08656207785919       -0.35009757450613
O           -5.48708660965952       -1.52075001141523       -1.31921242706183
C           -6.04557045131711       -0.58168754761901       -2.22681810938121
C           -4.10020563297314       -2.02097879560757        0.61128422084589
O           -4.60531859358525       -3.27216021978661        0.38159762758312
C           -4.21096229411085       -4.26338876342060        1.26947885040433
C           -3.32638048644345       -1.57800182546945        1.73336673713339
C           -2.83920415181118       -0.25342171448860        1.77739162944789
C           -2.14218840711006        2.34033950834510       -0.92572301361354
C           -1.33990652971385        1.15310568906558       -1.49745488353243
C           -0.04169407763466        1.01462938525811       -0.77815636979184
N            0.53720712776011       -0.21536910087680       -0.50746978895597
C            1.94055549088194       -0.21691434747178       -0.17100418787644
C            2.86801832919318       -0.51551230050910       -1.37448416769235
C            4.30538435792876       -0.44309528476947       -0.93015952433258
C            5.02793336536643        0.72740198151715       -1.04802257504952
C            6.34559428881934        0.79535354770967       -0.59490692831526
C            6.95613171199193       -0.28113184667739        0.02502226427878
O            8.23597775082645       -0.30606477982257        0.50276612006149
C            9.03833758822804        0.83213083875651        0.31683517668381
C            6.21774924379090       -1.46908144398499        0.19404580367912
O            6.88239550789227       -2.47189879556947        0.85056784590743
C            6.20066153036743       -3.68132080472755        1.04966369841660
C            4.91962697253020       -1.53116952896325       -0.29125176056154
C           -0.25025317827338       -1.41345758836806       -0.48435514268596
C           -4.00950127433957        3.22995687639904        0.43030210315967
C           -4.71682638521450        3.06395413057313        1.77794684982240
C           -3.50853751789126        4.66059317706041        0.24961595096453
H           -4.62349911886612        0.95431913410195       -0.79522275315075
H           -6.60654083228792        0.20751482387577       -1.71688331480511
H           -6.71885652363293       -1.12009491417307       -2.89359052669951
H           -5.26700783693266       -0.11769692605065       -2.83909018633780
H           -4.44668702403606       -3.99235733974895        2.29986774875384
H           -4.74749044706343       -5.16605127752983        0.99310888742642
H           -3.13660652224657       -4.41048283430090        1.17898214659893
H           -3.29439083760904       -2.01269650550291        2.74680476161492
H           -2.23519842988864        0.00518454562441        2.62368792676151
H           -2.90905625632201        2.57751541781513       -1.67815744473787
H           -1.46952121066546        3.19931251852318       -0.86245311757840
H           -1.92556962517833        0.24943131234397       -1.37578105179168
H           -1.21829153756033        1.32711677753431       -2.58731018124310
H           -0.97268603607536        1.78383110848022        1.38848905592125
H            0.71022992170659        1.70327197396572       -1.16992391029846
H            2.11524563035081       -0.90938918373829        0.64964526125408
H            2.23092881473927        0.76665902734371        0.20370102154613
H            2.66764853589149        0.24247814615012       -2.13420176929981
H            2.65435203000635       -1.51810653341707       -1.75066957677320
H            4.58314916145915        1.60585604316369       -1.49617864406169
H            6.89822946954425        1.71740782687775       -0.72160183075522
H            8.62879377111713        1.70643904842850        0.83708620027332
H            9.15381946978172        1.07262876054605       -0.74524244113159
H           10.01151387361621        0.59085282808372        0.73979335340114
H            6.90704257480265       -4.34049108002680        1.55632062989775
H            5.32420710010240       -3.53509260769146        1.68958177614887
H            5.88917895861642       -4.12807397094050        0.09861573967723
H            4.34889126285449       -2.43665560189325       -0.17182539224286
H           -0.66589509503749       -1.58575174021290       -1.48748111385539
H           -1.02559218754622       -1.36710198868405        0.31695200894202
H            0.38721369212277       -2.26914256209185       -0.27468643070427
H           -4.65275462530892        3.00761843518284       -0.43501807677132
H           -3.97393281239277        3.24954737413508        2.56244268019716
H           -5.09230771622739        2.05231678672899        1.88685111835350
H           -5.55316138057954        3.73329697484131        1.89873529361362
H           -2.75858840277589        4.87786807772472        1.00629063647130
H           -3.08147541843673        4.83568261308061       -0.74225819863754
H           -4.34977577916437        5.33121161061319        0.39892992276431
H           -1.16684373051405        3.05390873614806        3.19713457064058
