72
 energy: 79.120491924016 xtb: 6.6.1 (8d0f1dd)
N           -2.14588790902756        3.06319912637355        2.60619477364412
C           -1.86387046823594        2.47930086415039        1.51196717991269
C           -2.81885720973091        2.35464337704663        0.41135207290278
C           -3.15965952188620        0.47966966772892        0.99346436469270
C           -4.14490970502460        0.15286153266765        0.03012087334625
C           -4.46784070899972       -1.14550757647600       -0.28756051364189
O           -5.31374202312776       -1.54513082825590       -1.31976145830824
C           -5.87016477406892       -0.57127837170750       -2.20128968696535
C           -3.98783407983304       -2.10645938424522        0.65027895747489
O           -4.41611515892292       -3.35179880977322        0.34493948453941
C           -3.98075932419023       -4.34665300594466        1.19883036713852
C           -3.30314413655915       -1.75148934296308        1.84794985016150
C           -2.67827912127178       -0.46719089198531        1.86830388160126
C           -2.10892963851896        2.40516287820764       -0.92285135494471
C           -1.38814782404518        1.14052703572601       -1.39492127842161
C           -0.10302800748305        1.00464792283352       -0.64992704412891
N            0.46412189317723       -0.24932501942020       -0.44319892367606
C            1.88869950501690       -0.28691266744346       -0.16565222686021
C            2.81196380205233       -0.48362119426820       -1.38923180643363
C            4.25588443031764       -0.43521487034241       -0.94266038272254
C            4.98998497074268        0.73283474101721       -1.03498426150497
C            6.31374003959608        0.77412725533287       -0.59194893645010
C            6.92133642050381       -0.31926590221325        0.00151968588191
O            8.20059174157355       -0.36108741058409        0.47962189892680
C            9.01484256176448        0.77514547637090        0.31540636262871
C            6.17257718725760       -1.50557901993835        0.14695773283701
O            6.83257161911141       -2.51876528450603        0.78930497605051
C            6.13933533702766       -3.71886152017957        0.99263019634115
C            4.87269814171620       -1.54707855508609       -0.34299177422441
C           -0.34907513419793       -1.43995695486227       -0.41790518014677
C           -4.02698896019068        3.31469580785763        0.34186246036129
C           -4.80777300468897        3.20242385406494        1.67262032684204
C           -3.54395699477042        4.74273975524684        0.09510732091511
H           -4.66405046595564        0.91359340103257       -0.51729023742694
H           -6.48618092352466        0.16496583435123       -1.67910141364346
H           -6.48346493392627       -1.08972331150462       -2.93902417540767
H           -5.07228215953588       -0.04564137530465       -2.73784618187449
H           -4.22703777541960       -4.13631985005008        2.24036172517526
H           -4.46835765167864       -5.25752345585285        0.87329989415944
H           -2.90200034351535       -4.41477831508342        1.09121876523361
H           -3.65854184137008       -1.95492010487013        2.88058885495148
H           -2.07833633734358       -0.22764589485685        2.72635138603487
H           -2.83804121365785        2.68073157776406       -1.67345266794721
H           -1.36284567806292        3.20414466273551       -0.82700380386339
H           -2.01049073141368        0.27364928804957       -1.19425193728333
H           -1.29156340452707        1.24587992542803       -2.49356603141961
H           -0.92066369869636        1.94473138267657        1.24951619839023
H            0.65433869651297        1.71435731593621       -1.01485301539265
H            2.09176856790650       -1.03826485357133        0.58650948190651
H            2.20005858633011        0.65879303706816        0.28943430111367
H            2.61408923960348        0.32810268798475       -2.09795589584298
H            2.62574233199723       -1.46086965209244       -1.84884981219610
H            4.55135160718761        1.62423114105406       -1.46637457232874
H            6.87873581251069        1.69112557448185       -0.69633098448132
H            8.62044124104436        1.64757190216219        0.85318146363222
H            9.13215659703564        1.03249493352565       -0.74249152079020
H            9.98593455977171        0.50780901103338        0.72982202032377
H            6.83591455874133       -4.38774262319203        1.49858615878318
H            5.26698219151129       -3.56030424785307        1.63492961088551
H            5.82314046120016       -4.16027005432479        0.03961504071229
H            4.30032876420188       -2.45546570886578       -0.24679168005513
H           -0.87871136227833       -1.53864253193043       -1.37925445535643
H           -0.99039417621496       -1.47695576032804        0.50390550964541
H            0.29094358427756       -2.31875978413749       -0.38872968684609
H           -4.62778470068419        3.05981987122920       -0.55290382315161
H           -4.12734177563501        3.43824973954404        2.49733297235707
H           -5.19618325363925        2.20212073720072        1.83642317868947
H           -5.65547916606536        3.86204531774964        1.72184444079739
H           -2.83570215517023        5.03645020964479        0.87123129730553
H           -3.08891685862550        4.86219438917608       -0.89388077999895
H           -4.40870294112138        5.39129444784498        0.17010477702163
H           -1.46046389688385        3.05962083786314        3.35757230823385
