72
 energy: 85.497595983745 xtb: 6.6.1 (8d0f1dd)
N           -2.12900556997454        2.26326693835136        2.40764934003207
C           -2.43970491589573        2.76876876958867        1.34219879106690
C           -2.80110236161331        3.06798191795427        0.12575485291785
C           -3.38916126150625       -0.66408809875925        1.85252811356782
C           -4.03769694123051       -0.31227202337039        0.58406245622903
C           -4.35583753284435       -1.45125731498815       -0.10853688916973
O           -4.90792724352402       -1.60685209883477       -1.35057804831484
C           -5.34173206476676       -0.43364780210869       -1.98284103561079
C           -3.79184193875774       -2.57693641403991        0.57113256112963
O           -3.85368930834899       -3.82636380920706        0.08356958176838
C           -3.12699106794961       -4.76839210940734        0.81836852759281
C           -3.27977328876305       -2.18157927074997        1.77881640613858
C           -2.06093744909993       -1.44090095682144        2.03867642314567
C           -1.99146841174311        2.75377448927392       -1.11724100244138
C           -1.47973025592309        1.30784840075364       -1.18583142538607
C           -0.16789370971612        1.09170391130446       -0.43010363604667
N            0.38034689663884       -0.23219241758717       -0.55442785892330
C            1.72880133850369       -0.34858850186257       -0.08125721085154
C            2.66442448950378       -0.34943521753742       -1.30024356900375
C            4.09810255746995       -0.34973271482048       -0.88174796601093
C            4.87405430102947        0.78689773197711       -0.98514439414981
C            6.20074020022808        0.78194008893545       -0.57763177352521
C            6.76246900086481       -0.36432300070955       -0.04775892505622
O            8.05213246541042       -0.49042363890659        0.37643468958234
C            8.90603072005715        0.61724918197027        0.26123133783494
C            5.96969040165507       -1.52842832698649        0.07710495998893
O            6.60579914746325       -2.60691722310371        0.61000696167391
C            5.89536589934976       -3.80930264718201        0.75546127879621
C            4.65375607680341       -1.50602612031377       -0.33802619972758
C           -0.39882473818266       -1.35416057664545       -0.65230487107016
C           -4.05627607155962        3.88042221298756       -0.04865446729203
C           -4.90884221226628        3.80574737722732        1.21406204699802
C           -3.67035005057405        5.32980289189729       -0.34095615582076
H           -4.33754295746447        0.68151610967960        0.30071754219406
H           -6.14960338113764        0.03624735221959       -1.40192152136162
H           -5.71198499162486       -0.74362477385463       -2.96219445928529
H           -4.53919925096239        0.30591889146499       -2.11697212858746
H           -3.42147501464702       -4.80253750060593        1.87545914327369
H           -3.38009978725025       -5.70017536061555        0.32594853367739
H           -2.04583333545179       -4.60084098569553        0.76572408866954
H           -3.88716204751861       -0.36865026141302        2.77450164953895
H           -1.67817954024744       -1.37870324122167        3.04522196553641
H           -2.64763549727805        2.93335634355254       -1.98460145459691
H           -1.13422626491790        3.43265981814005       -1.20958612197416
H           -2.25754416280043        0.64471626039657       -0.80331610722947
H           -1.29921755887638        1.04719405188055       -2.23709578743925
H           -0.29759191563868        1.22614278378965        0.66052871868667
H            0.57298915341176        1.79493731834586       -0.84879516730068
H            1.86369410514804       -1.26503334591127        0.49626031559163
H            1.99025475508382        0.49339525470430        0.57629042053269
H            2.44525624278222        0.53623661358640       -1.89936443061089
H            2.42552539819426       -1.22999958954099       -1.89582287262809
H            4.45324112958186        1.69221534245465       -1.39654047510418
H            6.78319176687048        1.68256601571453       -0.68537947887131
H            8.55295709318324        1.46598063968535        0.85699322858378
H            9.02801211641581        0.93203189762647       -0.78087952398547
H            9.86641814680757        0.28169202267522        0.64927384861519
H            6.60649649796187       -4.51276356692259        1.18586909921249
H            5.04007843580908       -3.69825446817638        1.43104613745916
H            5.54705783006502       -4.19507393443116       -0.20782737538187
H            4.04107296667481       -2.39117681518708       -0.25922917670597
H           -1.36100419635855       -1.27466490835536       -1.09738904951607
H           -1.31570256635706       -1.44934006476790        1.23230200264224
H            0.11534272539112       -2.28833973626654       -0.69248988721022
H           -4.62848525939914        3.49710007049667       -0.91087277065246
H           -4.40979333430204        4.26623705963373        2.07022039877574
H           -5.14896822379141        2.77456935593963        1.47859103643201
H           -5.82691510379498        4.34904296208136        1.02213121654005
H           -3.09981258290644        5.74373919055543        0.48835796401774
H           -3.06219443585112        5.39480749186680       -1.24005383480988
H           -4.57825879205153        5.90821565613311       -0.48797874208205
H           -1.66583419334005        2.81004458413786        3.13789632906666
