72
 energy: 159.133740115070 xtb: 6.6.1 (8d0f1dd)
N           -2.10087774770050        2.65644875015088        2.55429482553291
C           -2.08750960682493        2.45791701135613        1.32011932105801
C           -2.77840731038181        2.70836541563647        0.22019584649665
C           -3.16795053044408       -0.00392384248125        1.33509397308294
C           -4.10862416447120        0.01567045698805        0.29286695088565
C           -4.35101798642437       -1.25554465937743       -0.22169023393707
O           -5.10306442071859       -1.58080351110732       -1.34721859647016
C           -5.64745887228767       -0.55368177302717       -2.17040792805014
C           -3.87110400668163       -2.24956545203482        0.63658043176441
O           -4.16772682534764       -3.48711321570282        0.25991616507598
C           -3.66977801828595       -4.45975125556681        1.09553044735270
C           -3.36129505774332       -1.98362005809849        1.98297194901640
C           -2.42925416070592       -0.86265366626549        2.00934290970876
C           -2.09124072747843        2.53781524489007       -1.07976251888795
C           -1.45973091322278        1.17169301043334       -1.31504125849121
C           -0.25030905754734        1.07905652934148       -0.42120674898818
N            0.34627745702293       -0.19854651202924       -0.38529076391985
C            1.79654108156747       -0.32860249601661       -0.12544058353699
C            2.72641965300250       -0.43334117223698       -1.35997717793882
C            4.18085888161630       -0.40852205234709       -0.92235527412861
C            4.93675628235229        0.74711792497725       -1.01114031898028
C            6.26797380375784        0.76209874449249       -0.58791681101286
C            6.86975930647741       -0.35159088887682       -0.02387437056366
O            8.14917428682364       -0.42055054688781        0.44853456104910
C            8.98250472356805        0.70689446174387        0.31049729598978
C            6.10816487642700       -1.53525649010635        0.09867990995144
O            6.76328404213351       -2.57046611722985        0.70705599849717
C            6.05870862522030       -3.76370858191727        0.91451843881577
C            4.79879274659164       -1.54737156465939       -0.37365625473869
C           -0.47578567768339       -1.39926677182183       -0.34625021840797
C           -4.04044081562018        3.50628282057998        0.20055924964318
C           -4.89062896228727        3.39828565697935        1.52574959196983
C           -3.58472590626791        4.91286398355971       -0.10176475621943
H           -4.71225955344519        0.81490683926181       -0.12397286255505
H           -6.33841020263905        0.09586308847163       -1.62701063349289
H           -6.17245572646802       -1.03543685566401       -2.99788872892391
H           -4.83856066340747        0.06497211783582       -2.58618932922482
H           -3.93749715538731       -4.32136290503928        2.14727841537642
H           -4.09197131621558       -5.37559475705557        0.70779453490470
H           -2.59225971069151       -4.42202095852658        0.97930007900623
H           -4.11391069200767       -1.59656073936587        2.71509020073806
H           -1.82702177114366       -0.60487481128973        2.82707937781862
H           -2.81351452114205        2.75361751375993       -1.83749688263174
H           -1.31832308479435        3.31042294440996       -1.07962577024762
H           -2.12937352295595        0.36483999857918       -1.02103100586821
H           -1.29057967892949        1.09901735541101       -2.39695639172349
H           -0.89997022238070        1.64918668209177        0.70637898447556
H            0.55336232055160        1.76942301276850       -0.75127926744244
H            2.02872390772971       -1.17322654063490        0.51503282806962
H            2.13942515281767        0.55774319120223        0.41507197745009
H            2.52652683363878        0.41723072421646       -2.01608561563132
H            2.56411406702092       -1.37340013428338       -1.91189970584200
H            4.50654327190172        1.64923594350516       -1.42858059709912
H            6.84571004829070        1.67063655778226       -0.68716982461950
H            8.60694611316200        1.57451036383592        0.87017330078895
H            9.10153094876063        0.98361594026174       -0.74231179109279
H            9.95056817778518        0.41146793688000        0.71469435490819
H            6.74653237221316       -4.44445304214983        1.41506073927003
H            5.19250822100501       -3.59730697060087        1.56299709334333
H            5.73552767697067       -4.20066534804544       -0.03983533827168
H            4.22491117436391       -2.45923386522706       -0.30718688168461
H           -1.11858847767325       -1.43781286946386       -1.23417619684641
H           -1.02325666043182       -1.48585148063239        0.64400377154758
H            0.15483734170031       -2.28198359144753       -0.53446338078636
H           -4.60446628977000        3.19342263793063       -0.69310376379658
H           -4.31813363560955        3.70238120159070        2.40849138607969
H           -5.29201213109724        2.41226674849328        1.75617248704095
H           -5.76093711899138        4.02544064048890        1.47900514204689
H           -2.93728277392825        5.24800067509386        0.70920264950809
H           -3.05084637369002        4.96997884449283       -1.05758207151393
H           -4.47837450543341        5.50747260556596       -0.13100606326333
H           -1.40345417704567        2.58764631684704        3.26684360656818
