72
 energy: 95.641016479717 xtb: 6.6.1 (8d0f1dd)
N           -2.12559777294471        2.20290996500085        2.38609097022459
C           -2.47921815503193        2.73717765295955        1.35058548289639
C           -2.77304951479228        3.04754627175136        0.12147299815133
C           -3.34685679443758       -0.60861163858643        1.80393960244662
C           -4.04000114698341       -0.27299178209306        0.56090436984093
C           -4.36021963393712       -1.42221161301285       -0.11341201027173
O           -4.90961511455043       -1.60901323660917       -1.35234402050358
C           -5.33626399491771       -0.44566598151725       -2.00192607859392
C           -3.81042444671639       -2.54278088107088        0.58444000502022
O           -3.87145603899704       -3.78702120973522        0.10052881067180
C           -3.13871241919325       -4.70465439748831        0.84481298712451
C           -3.28251381425567       -2.13849544603587        1.78570039027455
C           -2.02931346671203       -1.42904221945319        1.98994574272958
C           -1.99332159258958        2.74424285195485       -1.14689075755909
C           -1.48373887081705        1.29826477238068       -1.20900415854668
C           -0.18527963017479        1.08304050464884       -0.41503544120497
N            0.37745338951761       -0.23284454742352       -0.58204694949063
C            1.71667175104204       -0.33847439755922       -0.06819669479791
C            2.65172964733608       -0.33498991045052       -1.28577692960948
C            4.08717400600706       -0.34811011029590       -0.87166796931864
C            4.86473862778805        0.78701095976610       -0.97542150104801
C            6.19262854422180        0.77934191039035       -0.57360723240677
C            6.75800037646500       -0.36883781985353       -0.05106478820929
O            8.04694672944333       -0.49698826956702        0.36796552819922
C            8.90326940071135        0.61137811487002        0.25884492363203
C            5.96875100332333       -1.53587927155331        0.07231375341007
O            6.61716414852341       -2.61347605973669        0.60175714004479
C            5.90669852416679       -3.81389803078795        0.76161205962697
C            4.64826177596259       -1.50783117065110       -0.33694015258839
C           -0.41909981908836       -1.34808467087437       -0.61451653309941
C           -4.03912894160450        3.85425086730751       -0.02357029250019
C           -4.90737206783301        3.78337762768566        1.24054732743329
C           -3.64589068500776        5.28973426171728       -0.33622671764316
H           -4.34373083444528        0.72517468232849        0.28538046521607
H           -6.15493249353374        0.00502399351653       -1.42214262903026
H           -5.65717824262647       -0.73950308810882       -2.99542974271612
H           -4.53272809694716        0.29359457249297       -2.10255944812298
H           -3.43046223132835       -4.72715946939652        1.90494460753907
H           -3.40260948952633       -5.62585859155405        0.34670652757148
H           -2.06064275418358       -4.52588846819303        0.77981030558132
H           -3.90084372196718       -0.46489221004130        2.73455144595651
H           -1.68904118926229       -1.29589074457622        3.02162270470420
H           -2.66510001130310        2.92895362410689       -2.00590276063870
H           -1.14394484212060        3.42470806919122       -1.26906449224666
H           -2.27765185681119        0.64328549674375       -0.85241944434429
H           -1.27604051289705        1.02979379778522       -2.25920570667031
H           -0.27664022547076        1.14733904294202        0.68030574325275
H            0.55622901124172        1.79659405232531       -0.80585285874547
H            1.83710947418434       -1.26198121866283        0.50220844060518
H            1.98925415955305        0.49337217617162        0.60309336784259
H            2.43346759482975        0.55749986442690       -1.87821182809601
H            2.40363930565131       -1.20444157930436       -1.89127330357036
H            4.44644360030885        1.69544543988162       -1.38233774412284
H            6.77320199045133        1.68143050945508       -0.68075189720644
H            8.55138047577981        1.45878982271940        0.85779483405043
H            9.01921492253729        0.92688605611854       -0.78437264418594
H            9.86522454025524        0.27649232535656        0.64494303646096
H            6.60840061158806       -4.51848310129060        1.20445189613052
H            5.05441384484652       -3.68411074598236        1.43560512975104
H            5.55582968783757       -4.20688189307786       -0.20017403675735
H            4.03482197687125       -2.39269069826165       -0.26557703304022
H           -1.35480336124429       -1.26328352566250       -1.11625297489087
H           -1.28799994541412       -1.45179935906603        1.16891994256157
H            0.09347304458528       -2.27921760780419       -0.65204699085845
H           -4.61442155277166        3.46986624332234       -0.88126076808378
H           -4.42453763647212        4.22029285780732        2.11346081474774
H           -5.16528523080459        2.76644771241372        1.52207688752212
H           -5.83489725253156        4.30316324750770        1.04936319466674
H           -3.08155463904501        5.69447364829653        0.49859560415756
H           -3.03032345364051        5.34473994697040       -1.23155052371864
H           -4.54857256885603        5.85944048180053       -0.50696278073235
H           -1.65240496276924        2.72526053738811        3.12419561691957
