72
 energy: 132.646067178011 xtb: 6.6.1 (8d0f1dd)
N           -2.19944276322598        2.31941719419555        2.44836768220683
C           -2.26940457195424        2.72020258171408        1.30962154259313
C           -2.70023325533591        2.97592333565628        0.12298293687568
C           -3.37246965545291       -0.51338684909648        1.73341842997369
C           -4.06856130693985       -0.18467414206156        0.48172156818468
C           -4.31469599241150       -1.35715365932218       -0.16208428886084
O           -4.92113595187470       -1.60928986080236       -1.36422237680526
C           -5.45710334589452       -0.52491735423496       -2.10697891038674
C           -3.80762289779127       -2.44190942176525        0.61224961421163
O           -3.97007208035453       -3.65808904002986        0.16716671343997
C           -3.35917417493670       -4.57401533804102        0.97453045332091
C           -3.27498149430280       -2.08205758733311        1.80599729130561
C           -2.09634245326698       -1.23724935588870        2.00057760275157
C           -2.02828469594133        2.67321236057904       -1.17460031323253
C           -1.48257387964088        1.25482938919219       -1.28105162737846
C           -0.27526751399383        1.11377080622088       -0.36006507946892
N            0.33673725404379       -0.20456794432530       -0.42868405955175
C            1.73576359711972       -0.35486448702189       -0.06518656680521
C            2.66691658706782       -0.37476408859295       -1.30314143121049
C            4.11870977475694       -0.37463541396796       -0.88827298639897
C            4.88936643413162        0.77010022521967       -0.98198381996289
C            6.22316456247465        0.76451554022359       -0.57744405778243
C            6.81192020777584       -0.37016558939255       -0.04078185733943
O            8.09594120883797       -0.47021289080369        0.41443679373817
C            8.94562641292892        0.64647945497698        0.29698493227947
C            6.03694292717404       -1.54800702107169        0.07057685641771
O            6.69421866852868       -2.60786289037014        0.63725763678072
C            5.98303294249353       -3.80073720602240        0.83548137657846
C            4.71851470126222       -1.53397898644706       -0.37153561787009
C           -0.45867389455546       -1.33789948979797       -0.47427026485429
C           -4.01415948303001        3.70814089078429        0.08056952733506
C           -4.92546591671780        3.60359000543553        1.37400676889521
C           -3.59508432294534        5.10958033321242       -0.25260372715083
H           -4.59511832227324        0.72545440465492        0.18746923488850
H           -6.22452065375502        0.01291080604862       -1.54280724823603
H           -5.88265850360558       -0.93538384704346       -3.01965150896862
H           -4.65526908369304        0.17723917877848       -2.37194840048512
H           -3.65131676269513       -4.49852032151288        2.03379262031129
H           -3.71195432072433       -5.49185722759944        0.53671466909563
H           -2.28894457799794       -4.42496954455139        0.87180278852145
H           -4.00655535232284       -0.76819670915435        2.61012796787024
H           -1.71897607231390       -0.98480407750869        2.96696829758874
H           -2.75735586881519        2.81842610470900       -1.96453754964014
H           -1.22006002925866        3.40377085630908       -1.27047735338092
H           -2.24300394999070        0.52997857567782       -0.97790511094301
H           -1.21098746272724        1.02090222625390       -2.32100387778056
H           -0.60516430309539        1.39605609350134        0.64440380421950
H            0.49110468390524        1.83956609025491       -0.64502166056736
H            1.93315088908522       -1.27736836884933        0.48991459457723
H            2.05723731301864        0.48502756252014        0.55306717082314
H            2.45539011713178        0.50622558610135       -1.91229799294439
H            2.47234152556546       -1.27325975228053       -1.90998796229355
H            4.46370048667040        1.67800370253120       -1.38948091177143
H            6.80457654766107        1.66854000615911       -0.67761707555607
H            8.58667664821099        1.50663997880593        0.87757863465024
H            9.06452859485520        0.94183965674176       -0.75102723477136
H            9.91079312079063        0.33071119098900        0.69363803938667
H            6.66927728480860       -4.49456893313531        1.32018222304589
H            5.12309407139085       -3.63741262623063        1.49346407568964
H            5.64885942793323       -4.22839944604866       -0.12070860112805
H            4.12414478897324       -2.43424458139180       -0.31507003047943
H           -1.32025774031912       -1.30451953095655       -1.10174879016551
H           -1.29917522503844       -1.39358341452908        1.09143384151860
H            0.08675497697553       -2.23532640940139       -0.68843634476609
H           -4.56648158820115        3.35539724704453       -0.79914146817029
H           -4.44709467834869        3.97112167553940        2.28693611087224
H           -5.29290287272141        2.61975084139140        1.64629253708406
H           -5.82595158951070        4.17293634333446        1.24102773544381
H           -3.01698128309573        5.48179251337031        0.58620312894265
H           -2.99497526211671        5.15067191264292       -1.16345166489099
H           -4.50737244975738        5.64619009433768       -0.40080979299964
H           -1.54022112759259        2.59257391262622        3.15598256864661
