72
 energy: 151.280586107774 xtb: 6.6.1 (8d0f1dd)
N           -2.12659994982158        2.47948044450305        2.49823095146157
C           -2.18838151301733        2.61691341552684        1.29443637295810
C           -2.76450409803711        2.83274066958384        0.15668439828808
C           -3.24257523092767       -0.24441518510772        1.50447158671221
C           -4.07889429330860       -0.06248489323250        0.39077706658193
C           -4.33931284956203       -1.31396651015018       -0.18332387402418
O           -5.00977391559186       -1.59328432173537       -1.35599755416130
C           -5.54473767742856       -0.54072740346484       -2.14744326820509
C           -3.85361163406114       -2.32680831733318        0.63390589436744
O           -4.03912026792571       -3.55700496932422        0.22071098398555
C           -3.50836360600123       -4.51438791786080        1.04197458621731
C           -3.42803721963209       -1.91009303631865        1.95880133036588
C           -2.26870933400789       -1.00800901338050        2.04144483321852
C           -2.06873571177268        2.60185494119074       -1.13693143993403
C           -1.46820573932713        1.21452173491693       -1.30553803921431
C           -0.28898165247560        1.11821343106842       -0.34558722154315
N            0.32945718931694       -0.19622065390614       -0.36637975768621
C            1.76080121655600       -0.34367178889931       -0.09174829128191
C            2.69263241683379       -0.40490443714053       -1.33324486830243
C            4.14706808823170       -0.39310793689623       -0.90772165024622
C            4.91214234470694        0.75688945638479       -0.99682074637697
C            6.24514569577555        0.76087583950918       -0.58359948760895
C            6.84093527987699       -0.36358702579843       -0.03329544984481
O            8.12334323970367       -0.44766724591770        0.43321122772406
C            8.96458076054278        0.67495033282423        0.30531589093833
C            6.07238529310057       -1.54393173139636        0.08132667312878
O            6.72957310756199       -2.59074085260635        0.67086867018082
C            6.02101088357438       -3.78303946409979        0.87539994958453
C            4.75865695171968       -1.54342917444722       -0.37882998062641
C           -0.50255067202396       -1.36651575759221       -0.34001854503983
C           -4.03851339229456        3.60891925405503        0.13407272837971
C           -4.92188241841449        3.50217127282746        1.45122871852492
C           -3.58990239897933        5.00706120730605       -0.18558858526177
H           -4.68519426109472        0.77042059271269        0.03820834365524
H           -6.27432995365361        0.05720956708702       -1.59572993703723
H           -6.02158341643617       -0.99743064839836       -3.01455285172776
H           -4.73373210461015        0.11745944073971       -2.49416569652140
H           -3.79038468446045       -4.41207401172300        2.09749489577027
H           -3.90178608555304       -5.43023550379443        0.62593558724195
H           -2.43413856274831       -4.42779417175037        0.92620102374167
H           -4.11880426684700       -1.43159713579703        2.65534583627531
H           -1.75772591022210       -0.78329705235167        2.91894778395605
H           -2.79462335437735        2.77683135125727       -1.91099334443074
H           -1.28411444253503        3.36162835313494       -1.17916412082020
H           -2.18847443280918        0.44604926644334       -1.01297748820614
H           -1.23645427595927        1.05793797037195       -2.36767325740427
H           -0.76888983423773        1.49785529072446        0.61269170586568
H            0.52440340697903        1.79092549621936       -0.65780537493368
H            1.98845773517844       -1.22943093611836        0.50007038639627
H            2.10210627506668        0.51850950188022        0.48392150043798
H            2.48721312496525        0.46076004576732       -1.96522077592443
H            2.51643404053047       -1.32388732075364       -1.91566450081029
H            4.48482177159209        1.66268270722056       -1.40864459290183
H            6.82535203520777        1.66677193481021       -0.68315623840979
H            8.59730387737392        1.53984526542125        0.87415030398769
H            9.08451765673597        0.96095754516627       -0.74464035070517
H            9.93129097822779        0.36982916128609        0.70639448842927
H            6.70624626161042       -4.47064303857836        1.37068924275466
H            5.15722859008009       -3.61640286908446        1.52734017462204
H            5.69284301327318       -4.21624733068290       -0.07986197088329
H            4.17553026545184       -2.45110575276625       -0.32250507373283
H           -1.21933647613396       -1.36538281446526       -1.16008529861453
H           -1.07384432035103       -1.44311975921468        0.73912315383641
H            0.09177221693552       -2.25566941240018       -0.60832614805773
H           -4.59244580294367        3.27325265404508       -0.75421533606592
H           -4.39297647537216        3.83408618235235        2.35123622348106
H           -5.32015518490188        2.52135937726898        1.70548593406667
H           -5.80366138164621        4.10559145178659        1.36240278118668
H           -2.97868047469947        5.36129973323917        0.64127808263978
H           -3.01595310866357        5.05246954075342       -1.11600647050148
H           -4.49677957809462        5.56768740666092       -0.27787178499043
H           -1.38272463843059        2.44129672076942        3.15266178872626
