72
 energy: -99.686176109863 xtb: 6.6.1 (8d0f1dd)
N           -1.65071282428536        2.94638098884410        2.30201342559499
C           -1.60866785176838        2.21215026831165        1.28095675682673
C           -2.74734012512611        2.07588286476221        0.30571403762924
C           -3.30483547369679        0.66211138185230        0.37908224940041
C           -4.26546188078389        0.24904647266918       -0.54679409320065
C           -4.81991014205433       -1.01523294985479       -0.49854131312252
O           -5.77476584278470       -1.48636940115733       -1.35056614969100
C           -6.33053876026543       -0.60562706043063       -2.29266054970130
C           -4.39893936369816       -1.92542461181474        0.49621061312024
O           -4.99587558083830       -3.15112017230145        0.45898200190420
C           -4.66881887134844       -4.08849012043731        1.45154097647100
C           -3.44749019883240       -1.51712015163155        1.41114960196838
C           -2.91199503046120       -0.23490326391919        1.35480871866825
C           -2.15851280636996        2.33620443614769       -1.10769304392034
C           -1.29745112442815        1.19536489543440       -1.68603038085115
C            0.03659328372837        1.11668033257991       -1.04784026118716
N            0.64946924574598       -0.05371120473079       -0.64198283137672
C            2.03165843901218       -0.04009968456250       -0.27573324222487
C            2.98699006434567       -0.51005456043180       -1.40263079467762
C            4.40891931383651       -0.42429751235957       -0.93854321429471
C            5.13283345237230        0.74082813853520       -1.11156527743832
C            6.43025728703777        0.81708162339167       -0.63196617628550
C            7.02200517493974       -0.23933199442740        0.06323069197156
O            8.31430468109461       -0.17415446863153        0.51345212188383
C            9.07108211797677        1.00105375132849        0.31759482665337
C            6.26303985568063       -1.43257710336487        0.32211861140168
O            6.78045406673688       -2.42257268156605        1.16157315119723
C            6.36402881757659       -3.82231960082731        1.27846193383165
C            4.99399082906733       -1.48178466421840       -0.23392828169076
C           -0.01719195914128       -1.32124903640322       -0.74688743225251
C           -3.91388732259408        3.07026738560038        0.57174194728896
C           -4.60560147953368        2.78517370664481        1.90361888940198
C           -3.47763798050268        4.53342768697166        0.52403965135758
H           -4.58538618572526        0.93632151809007       -1.31249914005591
H           -6.78217007310451        0.26914605267955       -1.81234517388628
H           -7.10652963559139       -1.17583388870516       -2.80133120925744
H           -5.58906730940100       -0.27370544580210       -3.02778537953465
H           -4.90677489443978       -3.71772566277490        2.45431916629718
H           -5.28150037196100       -4.96325408158143        1.23770344438777
H           -3.61102950232002       -4.37128743564170        1.41163954301350
H           -3.11535223403301       -2.18541928443740        2.19017197325063
H           -2.19129509031578        0.05719661920833        2.10266318900663
H           -2.98330956678179        2.53012536631918       -1.79629209785573
H           -1.54507017819161        3.23800491108836       -1.06689335327186
H           -1.83625615140276        0.25296334744834       -1.59803996244637
H           -1.18209585190966        1.40648523051652       -2.76211462458745
H           -0.72286644101460        1.64039790340747        0.96160252344751
H            0.66238013861251        1.99096661755224       -1.06122199426607
H            2.17387782557762       -0.68822208529324        0.59613380258820
H            2.30666746069301        0.97760741175260        0.01091815326455
H            2.82736279158573        0.13043136135719       -2.27257832028688
H            2.73525436153998       -1.53546806297748       -1.67416229665435
H            4.69328893764955        1.58526579452207       -1.62757655783363
H            6.97030582739027        1.73883774074400       -0.80850497217428
H            8.62772891036713        1.87376053299574        0.81188454476284
H            9.22701158264895        1.23594295499393       -0.74273450648457
H           10.03990093119710        0.79628470779160        0.77350950834967
H            7.33624631886655       -4.31776819680627        1.30699358318807
H            5.77835677197268       -4.39948923723997        2.17759923482725
H            5.75878796430427       -4.07910064275536        0.41408547815812
H            4.41448016071354       -2.38068121783398       -0.09266634388369
H           -0.19373585202392       -1.62232286973631       -1.78712892768400
H           -0.98100331946782       -1.28104696732775       -0.23205327303262
H            0.59681374537705       -2.08148162464746       -0.26728462671927
H           -4.64848484526854        2.91437074975964       -0.22777138512776
H           -3.91081015399437        2.94975465896595        2.71994797396929
H           -4.96224461018476        1.75870685744168        1.94487572092485
H           -5.45729488791471        3.45132625471794        2.02511095268352
H           -2.72827170441611        4.72289175353337        1.28551160415944
H           -3.07439595171894        4.80077789671621       -0.44932691799941
H           -4.33711666749110        5.17169308402296        0.71833955096683
H           -0.80241782497524        2.95994705295250        2.86535357639903
