72
 energy: -99.605903757459 xtb: 6.6.1 (8d0f1dd)
N           -1.35201638757797        2.67880936385831        2.16125083036588
C           -1.42843883714144        2.13577428763217        1.03304571316562
C           -2.67297149915512        2.02481614976393        0.19890440235336
C           -3.27150145397207        0.63200720775869        0.33850126370951
C           -4.31499993678455        0.24341371010852       -0.50578183622507
C           -4.88281747012325       -1.01305054886485       -0.41564923405138
O           -5.89705133573539       -1.47746151043422       -1.20028597077549
C           -6.44626905003049       -0.62644467163015       -2.17223349519605
C           -4.40356640410017       -1.92924842806861        0.54785339286914
O           -5.02759390815309       -3.14210515852881        0.55724818529549
C           -4.65168022522926       -4.08395422422344        1.52765470844054
C           -3.36852641055849       -1.54331350989471        1.37793883835459
C           -2.80925881886121       -0.27521694591926        1.27192317589016
C           -2.19705768341491        2.19912840381201       -1.26228893326138
C           -1.31870576002760        1.04867581083279       -1.74072790133139
C           -0.01994574391781        0.99542913304604       -1.00620665179156
N            0.46813839684065       -0.16384275738117       -0.64838040564186
C            1.83278599975630       -0.17833906460926       -0.11262097299413
C            2.87239236515398       -0.54147071011734       -1.19405873083175
C            4.27991254617353       -0.39701279442536       -0.67315698257703
C            4.97220091689135        0.79237947345604       -0.81254120738311
C            6.28926336769055        0.90925916991259       -0.38521929083044
C            6.93707209510793       -0.16956153876246        0.18957705186018
O            8.23499537378786       -0.18839689188174        0.60553073127632
C            9.03527268926841        0.94008584101579        0.36540234467880
C            6.22931161790938       -1.38029726993833        0.37000305528093
O            6.94603974695280       -2.37938575451497        0.96087186310493
C            6.33958106156235       -3.62880918833325        1.16211237982818
C            4.91684992616877       -1.47552979962554       -0.05691057915796
C            0.01835085466910       -1.47286452918540       -1.08399641398923
C           -3.74985777333099        3.08269123598380        0.57911801752793
C           -4.35693008644408        2.78471103301175        1.94962194322507
C           -3.20324840035149        4.50983449265771        0.56532168579409
H           -4.68528599828394        0.94192812894943       -1.23858210043978
H           -6.88812547026684        0.27108675902812       -1.72573953572276
H           -7.22923815000579       -1.20820739399805       -2.65676529176309
H           -5.70226191163559       -0.33143964695297       -2.92186489895635
H           -4.80765216824922       -3.70471966377497        2.54317876595487
H           -5.29924867723302       -4.94407462043030        1.36347648397057
H           -3.60673284651360       -4.39291963818042        1.41092036044594
H           -2.98335176199215       -2.21917711445468        2.12506652279068
H           -2.00793303896815       -0.00353528420484        1.94047863699581
H           -3.04195219427128        2.35463080494932       -1.93172231784828
H           -1.55107503594002        3.11235729205347       -1.31008385648342
H           -1.91211375212886        0.12076914675514       -1.75552206635787
H           -1.02298802193464        1.26092970792577       -2.77506651981709
H           -0.55124586426877        1.71182137171518        0.49008652245087
H           -0.46448457851383        4.13470172456400       -1.23199172363957
H            1.86696074619992       -0.89658904419049        0.71639674192022
H            2.07472438940934        0.81711522842240        0.27487688491450
H            2.72583849512813        0.14512630007764       -2.03171214683444
H            2.71251040088342       -1.56685600454429       -1.54148915043798
H            4.48963177928101        1.64456062509990       -1.26717772888547
H            6.80357921789136        1.84880174187967       -0.51836853076858
H            8.67355952911531        1.81838587630345        0.91168134209556
H            9.09394764070322        1.17820220753959       -0.70302183542472
H           10.02832378657837        0.67667384049815        0.72994360429178
H            7.10468465042225       -4.25252800789986        1.62311469051975
H            5.48132150994472       -3.55877626474961        1.83921263858638
H            6.02449164338569       -4.08730450543637        0.21783320512616
H            4.37720102463932       -2.40336724251536        0.06372184907096
H            0.36158012998632       -1.63510557686600       -2.10037379220903
H           -1.05676871100968       -1.56358227243353       -1.05129793523841
H            0.46059990156024       -2.25628082570831       -0.46623486119220
H           -4.54687967415911        3.01202133866754       -0.17191858260010
H           -3.57721610034268        2.81526181513079        2.70472484256410
H           -4.82144341755897        1.80156343736850        1.96425532042307
H           -5.11401006546083        3.52922600473929        2.18951591741604
H           -2.45299919776287        4.63040416123424        1.34243338287226
H           -2.75522353494580        4.76297783406149       -0.39168371363748
H           -4.01267042936560        5.21128308414325        0.75593039657937
H           -0.40838021105771        2.67267734108573        2.53964297942843
