72
 energy: -99.348246834516 gnorm: 0.003524145892 xtb: 6.6.1 (8d0f1dd)
N           -2.53828232178338        2.75161911475067        2.50824154342781
C           -2.57792271402958        1.96967205953907        1.58407042453346
C           -2.85418097200460        1.30915231585048        0.47989695783343
C           -3.54491693453292        0.02650653210970        0.51283352773824
C           -4.12954181234577       -0.51212616885010       -0.64036226810930
C           -4.74205449984796       -1.75141277655258       -0.61947919128884
O           -5.32704618187125       -2.34875818302617       -1.68109181432158
C           -5.35474085698495       -1.67871377183695       -2.91881671843983
C           -4.78489492805345       -2.49820630228783        0.59032167792225
O           -5.38179201110796       -3.70206208859756        0.50433004607712
C           -5.46862238958406       -4.51086908648795        1.65483453448656
C           -4.22794001307533       -1.94598106667216        1.73722136830325
C           -3.62004663149871       -0.70474733768331        1.69973513593291
C           -2.31158425225333        1.87227777315888       -0.81813714605250
C           -1.30567421334820        0.91743718567373       -1.46691536099364
C           -0.07657309370768        0.71359242098113       -0.57825866304094
N            0.87553568172533       -0.20346114099652       -1.16550246793932
C            2.23583937041394       -0.08054403356063       -0.68450058998980
C            3.25337085330096       -0.37952849288013       -1.80173604501663
C            4.64835712012955       -0.15874016352127       -1.29707689307266
C            5.31302339090094        1.03663517661674       -1.52558241265950
C            6.58720358887288        1.25101559416651       -1.02302871163130
C            7.22337964344471        0.27314427905024       -0.27144167208647
O            8.45371846874225        0.36938703118949        0.26866050836469
C            9.20527761817391        1.54299372609593        0.06237909276478
C            6.54948461540996       -0.95623761120148       -0.02774045018991
O            7.23783935615493       -1.84932335198059        0.71193876944269
C            6.65930509954256       -3.10132773887508        0.99258630844008
C            5.27806990108153       -1.14782271116882       -0.54476124213236
C            0.40412765373215       -1.56816129227411       -1.23325665057847
C           -5.65575526627138        4.95028560779010        1.31554449203895
C           -5.94745503750827        3.81371360918636        2.19410982014910
C           -4.30891561990448        5.49879595109408        1.14094418413922
H           -4.12232999385544        0.05915918057939       -1.55330078094272
H           -5.90206650607949       -0.73288933153626       -2.85207846204464
H           -5.87609738336184       -2.34732464690785       -3.60110311997209
H           -4.34481875497439       -1.49150496466486       -3.29916002987600
H           -6.06198251532350       -4.03058559245751        2.43891889333106
H           -5.96710631790622       -5.42314689728656        1.33334177509432
H           -4.47721330868366       -4.75866998361023        2.04669311622251
H           -4.25942692099978       -2.48543146943253        2.67005161404461
H           -3.18379864371682       -0.30191480396906        2.60181410963869
H           -3.13925880044730        2.05646530599429       -1.50586794502165
H           -1.83123946946297        2.83153687895707       -0.61713933182508
H           -1.78941537520049       -0.04263627063689       -1.64220765297023
H           -0.98628313743218        1.32341193174793       -2.42803649654679
H           -0.40954380740188        0.35741594104335        0.41501718281168
H            0.41832380156346        1.68002647021680       -0.44171615801401
H            2.42384067778830       -0.75263143535672        0.16827189075387
H            2.40088608255467        0.94444635261337       -0.34288463277787
H            3.04352610526834        0.28043751013782       -2.64470087423718
H            3.14011688186970       -1.41117733822945       -2.13926497519506
H            4.83948003905482        1.81117594738612       -2.10911429547404
H            7.08006473840502        2.18828046397814       -1.22400703306431
H            8.71017996530305        2.41662577540852        0.49685195930875
H            9.38998198089001        1.71865027586975       -1.00152453654873
H           10.15304650477107        1.37510222812242        0.57058828770983
H            7.38953485966055       -3.63044852442872        1.60180448023182
H            5.72654503861852       -2.99599016435599        1.55577200839005
H            6.47115963288043       -3.67008056073069        0.07668689290634
H            4.76160692781736       -2.07953910958478       -0.37476293077179
H           -0.40614757082266       -1.64535092587663       -1.95545778250184
H            0.03777889341443       -1.92524099415936       -0.25736122186701
H            1.20928536908645       -2.21976324944836       -1.56311809483777
H           -6.47951361182092        5.43109280700540        0.81172483296026
H           -5.04591673915202        3.42274644396045        2.65700130104852
H           -6.44028967722161        3.01249626819189        1.63683703903382
H           -6.65859629131798        4.10631321405959        2.97210222137706
H           -3.54883190356859        4.78148828455599        1.44461454126956
H           -4.14100539065989        5.81911442370439        0.11199859410671
H           -4.18697725334569        6.39641998266690        1.75972643552957
H           -1.79757514138870        2.79785504108980        3.19429392782404
