72
 energy: -99.580465576210 xtb: 6.6.1 (8d0f1dd)
N           -0.16605708492424        3.96702278913883        1.20985147645529
C           -0.81961895629540        3.01451090685571        1.31726842021807
C           -2.89409376613417        1.88881748950186        0.38653240444777
C           -3.56049725130895        0.61756182144653        0.44746340928267
C           -3.85655663743822       -0.00701095086491       -0.76710641070934
C           -4.54857415772127       -1.18382854782379       -0.80543024873934
O           -4.88291537080495       -1.81473593003481       -1.93176601543365
C           -4.39404284563925       -1.15776332439495       -3.03475799642145
C           -4.95989014022546       -1.82505718602688        0.36527710169454
O           -5.58078696157183       -3.02031094778470        0.15601505489360
C           -5.90047946935052       -3.76900175524836        1.28880752455666
C           -4.64347605361772       -1.23241249404149        1.56838668761622
C           -4.01463519877085       -0.00429876957695        1.62118579332651
C           -1.97279553451902        2.08633719044836       -0.77118883358724
C           -1.02064105047228        0.89356686509549       -0.88685918942247
C           -0.14403208348616        0.75867968499277        0.36246121296168
N            0.55995215416466       -0.51166458895578        0.44996622570471
C            2.00354368810283       -0.50817050733089        0.43163899724618
C            2.63560630118459       -0.41511106816497       -0.95817332174209
C            4.11409798175321       -0.24109703626219       -0.82077855334613
C            4.72431319705810        0.98742788208106       -0.99491165438572
C            6.10156694404742        1.12837183317774       -0.83146004024531
C            6.89820964677942        0.05035095817613       -0.46590293608346
O            8.24556850529198        0.07660425535894       -0.20982333358308
C            8.93504091714999        1.30093900280097       -0.28654874663077
C            6.28615538014323       -1.21657785906180       -0.29891603198757
O            7.13128306454161       -2.22758107669144        0.08344893652170
C            6.59402674005446       -3.50667258832904        0.30798950191674
C            4.91470443527906       -1.33611446785443       -0.48318269668647
C           -0.00413446433599       -1.74833938898172       -0.04253698170045
C           -3.65737715885372        2.98978844677641        1.06774791171356
C           -3.36265303221841        3.09586219752536        2.55834969214044
C           -3.51664321947889        4.37151751837725        0.44438610827488
H           -3.65332590892870        0.57908034239941       -1.63640167862409
H           -4.85456138125645       -0.17073685348531       -3.14276211481577
H           -4.70101953995529       -1.84403403125246       -3.78849530214909
H           -3.30386263762120       -1.02486739633942       -3.00418046388598
H           -6.54373363953737       -3.19187404202244        1.94603893130263
H           -6.40039652319652       -4.66598495952522        0.93051138423196
H           -5.02527579120659       -4.07496166051012        1.85999773514073
H           -4.81890924334762       -1.77019807639022        2.47699169941998
H           -3.78648568161390        0.38461187179612        2.60013495058498
H           -2.55807148680397        2.07529425149681       -1.69567004931656
H           -1.43705700756912        3.02909120332586       -0.72130942654333
H           -1.62481678020969       -0.00663268214299       -0.98659875058769
H           -0.43599047217505        0.98439223111138       -1.81241075434016
H           -0.77126229973768        1.18452897236061        1.28362804675620
H            0.62217242731049        1.52823171384624        0.42656516069296
H            2.37745939728717       -1.42826487711864        0.90512340195712
H            2.38584721912264        0.34112236803457        0.99082596760758
H            2.21593051079492        0.41145711256084       -1.52706624752180
H            2.38247787421212       -1.32673460919501       -1.49267560258759
H            4.13433914876964        1.84699630012034       -1.28354704182988
H            6.54523032806800        2.10096264376628       -0.99044108480652
H            8.50895408942284        2.04590180595742        0.38728595861808
H            8.93163879747593        1.69602072347683       -1.31086961362193
H            9.96113016223326        1.11348419558572        0.03704446084626
H            7.41543589524786       -4.14177066041875        0.64368003187243
H            5.83562400881814       -3.49020904029169        1.09664040022856
H            6.15564733938359       -3.91899204805408       -0.60839609466221
H            4.43046058077151       -2.29510206293805       -0.36261623483507
H            0.07782070639406       -1.90924343006919       -1.13077690674910
H           -1.05053525741489       -1.81876334668611        0.23973116631478
H            0.52315870722010       -2.57650204721199        0.43813915547919
H           -4.70250502992813        2.67277440519017        0.95462844760826
H           -2.33757183046381        3.41721211318501        2.70640900690396
H           -3.55294120076459        2.14273230622423        3.02212177818438
H           -3.98272594570615        3.82182117662119        3.05799596636542
H           -2.49101051453660        4.72006813560290        0.55724594287945
H           -3.80715211576664        4.37384043791072       -0.60570593313891
H           -4.15642542072802        5.05119736080992        1.00724187191838
H            0.41946160501260        4.62785963918683        1.62999823760525
