72
 energy: -99.252821568500 gnorm: 0.004605014087 xtb: 6.6.1 (8d0f1dd)
N           -1.92875631328877        2.82694126824564        2.22245382051619
C           -1.84241913376857        2.12400959753427        1.19178127881192
C           -2.98557555601633        1.88190115458372        0.23781254573098
C           -3.44986523281481        0.43407575750925        0.34976660745119
C           -4.37745654135606       -0.06209968798608       -0.53646636035342
C           -4.85221429950806       -1.34871019700266       -0.51372054998961
O           -5.78403479621746       -1.83217721258233       -1.35949356271544
C           -6.33358256425587       -0.89850583345809       -2.26064049108142
C           -4.33522880250262       -2.24844391001415        0.47147418411287
O           -4.83033775424440       -3.49999865948676        0.43201534294222
C           -4.46511470216015       -4.41307327298639        1.44046880261190
C           -3.40228942265896       -1.75827170692111        1.37462181418691
C           -2.96803972156341       -0.43999787773579        1.32363753424356
C           -2.44901882305184        2.12067667031181       -1.19769378227060
C           -1.50447246771370        1.02226764685894       -1.71617136253864
C           -0.16340083211238        1.04200656354713       -1.09141013230662
N            0.51004157829996       -0.02752548834549       -0.68230249022776
C            1.88962271116601        0.08799264377331       -0.27226421506384
C            2.86021342138216       -0.36042813617957       -1.38195607261213
C            4.27892869577300       -0.15033002406441       -0.93176831622505
C            4.91586210439940        1.06044647994967       -1.14882981824489
C            6.21413307033872        1.26874031429237       -0.70939417566956
C            6.90105668457012        0.26837390476907       -0.03703318912871
O            8.16001118674471        0.35786027864840        0.43108045535402
C            8.88876851371305        1.54529507101597        0.22051325360910
C            6.25388185244016       -0.97671106631149        0.19492340061633
O            6.99318415902672       -1.89255687585513        0.85240824972228
C            6.45052277478541       -3.16713141085883        1.10100742232525
C            4.95537990850921       -1.16116596160613       -0.25278783406844
C           -0.06345123279306       -1.35150852953281       -0.71561826803273
C           -4.17368192582629        2.81457561460843        0.53703388184759
C           -4.89115460286775        2.47737538595714        1.82179418639251
C           -3.87949196453050        4.29143587837719        0.41882828424747
H           -5.68430968837781        2.39541298629825       -1.22803679298034
H           -6.78323847683594       -0.05740452606017       -1.72394653696902
H           -7.09560166515364       -1.42879649406858       -2.82667479046324
H           -5.56518713087940       -0.51331260556589       -2.93871287493831
H           -4.73052128946577       -4.03943239019269        2.43398216080742
H           -5.02996190634047       -5.31934539279350        1.23174441635719
H           -3.39393589063434       -4.63770599957684        1.40938329321097
H           -3.00700947948330       -2.40134384961794        2.14543055818785
H           -2.26282282365578       -0.08931757409987        2.06306773197052
H           -3.30805067705339        2.15800372053514       -1.86752292830795
H           -1.93609683634270        3.08222878867083       -1.23839801569465
H           -1.98726279648341        0.05281840349292       -1.60855320205526
H           -1.36995455912595        1.20699351100637       -2.78998313308432
H           -0.91623395276395        1.62967344399073        0.84901703234773
H            0.37094397539321        1.98063704884001       -1.08199281171600
H            2.05108741996287       -0.52368007980255        0.61961693192918
H            2.10463844845937        1.12755818426411       -0.01627161494327
H            2.66295730103707        0.22843992854558       -2.27933307544191
H            2.69052651576901       -1.41233175601633       -1.61432777857479
H            4.40655862119145        1.85206957118139       -1.67722678023009
H            6.68605934949387        2.21836598778228       -0.90082615981017
H            8.41361263953724        2.39974953466386        0.71210635566941
H            9.00930447267686        1.75724386313260       -0.84605748270136
H            9.86602806321870        1.37074138951387        0.66639590087037
H            7.23252689981378       -3.72213745598130        1.61550959205765
H            5.56665524849017       -3.10877521588152        1.74450597866463
H            6.19362619491095       -3.68277037649308        0.17046839369971
H            4.45884381315593       -2.10489997690308       -0.08942888323653
H           -0.21562025537835       -1.69092960446194       -1.74247041416984
H           -1.02521365446748       -1.36446697880892       -0.19690616522841
H            0.60800050892025       -2.04536907913442       -0.21637582074677
H           -4.99081106201525        2.57408626021053       -0.37380925271605
H           -4.21528574567312        2.65680700288756        2.65806626859908
H           -5.20216263121516        1.43580199802313        1.84601476880128
H           -5.76728241671661        3.10864821622527        1.94581758015940
H           -3.14992518142831        4.57164707740744        1.17848797086445
H           -3.49100993036899        4.55989278349020       -0.55967030679321
H           -4.78534731062630        4.86602159787703        0.59488284014721
H           -1.09402848647363        2.93797920079963        2.78922144484739
