  72
        -99.35538628
 N         -1.4377800447        3.5056713423        2.1403942344
 C         -1.7256551943        2.5109405617        1.3018347398
 C         -3.2562684909        2.1953705620        0.9554598393
 C         -3.5270164034        0.7419585508        0.7642333630
 C         -4.1805897817        0.3315088938       -0.3991831791
 C         -4.4861660554       -1.0029455267       -0.6151908328
 O         -5.1213071507       -1.4936670475       -1.6982223887
 C         -5.6212477373       -0.6024338490       -2.6683096196
 C         -4.1179422703       -1.9722816198        0.3605487917
 O         -4.4538187104       -3.2425504220        0.0701330090
 C         -4.2189679405       -4.2512971364        1.0266520991
 C         -3.4564682202       -1.5520271174        1.5068466967
 C         -3.1672752535       -0.2112908647        1.7072250182
 C         -2.3755548630        2.8444034389       -0.0406166535
 C         -1.1801732779        0.3900421499       -3.2102312358
 C         -0.1095677297        0.6595873401       -2.4522800693
 N          0.2880591787       -0.0132010884       -1.3355006167
 C          1.6332052371        0.1627543188       -0.8551695947
 C          2.6479262164       -0.7106697628       -1.6272596980
 C          4.0404173305       -0.5062813421       -1.1099373154
 C          4.7715246299        0.6172763227       -1.4760805693
 C          6.0551509800        0.8191516814       -0.9980421366
 C          6.6429688710       -0.1017027374       -0.1390455805
 O          7.8792871567       -0.0159636091        0.3782543223
 C          8.7015327731        1.0756646838        0.0337392884
 C          5.9018036230       -1.2563074994        0.2452634300
 O          6.5465971291       -2.0995607598        1.0711044395
 C          5.9185014327       -3.2943798404        1.4725401111
 C          4.6144240425       -1.4311689487       -0.2425573115
 C         -0.4326824231       -1.1876049438       -0.9147587632
 C         -4.3489272335        2.9435666046        1.7034202980
 C         -4.3743070231        2.5359086829        3.1773907532
 C         -4.2456113951        4.4590155634        1.5857555369
 H         -4.4589931115        1.0785391918       -1.1254389583
 H         -6.3315959939        0.1058509978       -2.2318529608
 H         -6.1353109702       -1.2247668501       -3.3984550790
 H         -4.8150550726       -0.0526293341       -3.1641575420
 H         -4.7242150349       -4.0314307961        1.9717170742
 H         -4.6335707471       -5.1623154320        0.5991077563
 H         -3.1485115100       -4.3903439128        1.2075309907
 H         -3.1684175148       -2.2675386398        2.2596182032
 H         -2.6515290678        0.0865295740        2.6067641436
 H         -2.4982801615        3.8975407693       -0.2375108465
 H         -2.0375255131        2.2568443819       -0.8824676169
 H         -1.8352156966       -0.4419485899       -3.0291369392
 H         -1.4150520482        1.0181164620       -4.0485369982
 H         -1.1275894837        1.5935267307        1.3117477090
 H          0.5195623778        1.5048308197       -2.6979349955
 H          1.6683931416       -0.0958036555        0.2065533134
 H          1.9140155212        1.2137016366       -0.9590128315
 H          2.5996740665       -0.4391465182       -2.6838050329
 H          2.3617347590       -1.7585446739       -1.5282344062
 H          4.3432565772        1.3404103010       -2.1531173767
 H          6.5987138037        1.6973552829       -1.3058832752
 H          8.2652191014        2.0241961260        0.3607859956
 H          8.8885585355        1.1110222497       -1.0434984336
 H          9.6406943118        0.9104434716        0.5582381236
 H          6.6423449831       -3.8072659182        2.1030102060
 H          5.0113808563       -3.0954682520        2.0516473129
 H          5.6743148888       -3.9263454085        0.6132864050
 H          4.0484221226       -2.3052608824        0.0390831489
 H         -0.3533769497       -1.9996748141       -1.6444412399
 H         -1.4886280371       -0.9451042703       -0.7842211954
 H         -0.0368972245       -1.5316577895        0.0383142712
 H         -5.2952001546        2.6177282365        1.2484766092
 H         -3.4401711795        2.8317887336        3.6509956523
 H         -4.5110003325        1.4626456369        3.2877097129
 H         -5.1916939694        3.0373589180        3.6875970726
 H         -3.2761774156        4.7877948837        1.9575815182
 H         -4.3724412118        4.7898209155        0.5573902208
 H         -5.0242863854        4.9220661563        2.1863814365
 H         -0.7897586489        3.2864743608        2.8830185092
