25
 energy: 0.000000000000 xtb: 6.6.1 (8d0f1dd)
C            3.23720163006194        1.16630919979326        0.08434469647475
N            2.29877817382611        0.07527477071623        0.03981603040599
C            2.58028210190900       -1.21425402444508        0.03006176031096
N            1.43813958087363       -1.93419271955128        0.00098261760884
C            0.39035688448383       -1.05887472636071       -0.00790371836672
C            0.93510056364412        0.21347819449412        0.01709077491437
C            0.09450143893243        1.40504303904423       -0.00410947031874
O            0.49712751527797        2.54126714362870       -0.00342325688240
N           -1.25076640035757        1.06271879480407       -0.03085478223738
C           -2.21907211982101        2.15522099834493       -0.05001256985998
C           -1.81739487048744       -0.20012725993278       -0.04692818574614
O           -2.99983886758376       -0.37846417018721       -0.07008878229737
N           -0.92618586207120       -1.30210215599479       -0.03682761578324
C           -1.46982264913417       -2.64643102187190       -0.06029820460571
H            3.71247264356769        1.21471455160235        1.06488849150277
H            4.00791497605742        1.03430808813993       -0.67357694370751
H            2.69910007168542        2.09770118228144       -0.09130154882931
H            3.56654120610678       -1.63682992603973        0.04233140067262
H           -1.67107961066214        3.09322851271934       -0.02552706933167
H           -2.82428953597071        2.09428624779827       -0.95318082946668
H           -2.87644029173232        2.07745725625962        0.81450067533302
H           -1.17061996399332       -3.19584890659852        0.83242232437030
H           -1.14560257411436       -3.17511610292205       -0.95688275822323
H           -2.55549792440841       -2.55659984320617       -0.07459039797972
H            1.38130855184625       -2.94313852034425       -0.01389874181052
25
 energy: -3.162448403016 xtb: 6.6.1 (8d0f1dd)
C            3.24895047908736        1.17833906942990        0.07972542106136
N            2.30725597856013        0.09907777933369        0.03938309695172
C            2.60244144629782       -1.22561988692658        0.03249681673617
N            1.43130078068755       -1.93670556468449        0.01392406992992
C            0.38720203452571       -1.05793729546894        0.00019115615216
C            0.92672061031763        0.21879801169233        0.02104299164694
C            0.09609965345337        1.38668227519614        0.00673835969793
O            0.50559082793642        2.54974113644811        0.01569757176496
N           -1.27545671324035        1.04115207688000       -0.04569039909403
C           -2.20766308357916        2.16097753160788       -0.02386750632378
C           -1.88137819230403       -0.21314683749703       -0.15671810939453
O           -3.08605827823637       -0.37486520105470       -0.23756973148990
N           -0.95384625987989       -1.30399580532206       -0.04348348779573
C           -1.46356069971633       -2.65508358293769       -0.03135129437210
H            3.73190605012438        1.22731442304619        1.05946540610995
H            4.01689171977880        1.03714989751945       -0.68307920469869
H            2.70896629546985        2.10570930947526       -0.09921566697431
H            3.58525006549301       -1.64406625834538        0.03547189299434
H           -1.64533792378080        3.09377326265779        0.01674737354858
H           -2.81361058769971        2.12394392873582       -0.92606427690500
H           -2.85709623096377        2.07794680359899        0.84658424637663
H           -1.11871768236315       -3.20720044517712        0.84688814373071
H           -1.16517430212976       -3.18079498502780       -0.93867287352870
H           -2.54708561514658       -2.57092579104584        0.00125167706277
H            1.37862429524412       -2.94123524996190       -0.00286177704004
25
 energy: 9.157420126677 xtb: 6.6.1 (8d0f1dd)
C            3.26475795189987        1.18934973005329        0.07173892007452
N            2.31288439792093        0.12713215825452        0.03886304489243
C            2.62304904360234       -1.23501752751295        0.03805288444281
N            1.41976286641936       -1.93294759812324        0.03204670027569
C            0.37840585596471       -1.05584132392430        0.01766443100609
C            0.91360231768623        0.22442452626590        0.03077690225976
C            0.09695589014052        1.35609703918456        0.02202240561810
O            0.50750695903965        2.54187360013018        0.04170940860131
N           -1.31344523675011        1.00960707043872       -0.06258859272054
C           -2.18882159262531        2.17339527910219        0.01877637628326
C           -1.97875290859501       -0.23423449742722       -0.32795917555041
O           -3.19467962439728       -0.36654802672998       -0.54153979616875
N           -0.99396503260627       -1.30265317714295       -0.04848155937347
C           -1.45064157228668       -2.66748510322040        0.01580063751794
H            3.76087678029914        1.24383437540612        1.04821414182409
H            4.03028556385642        1.03817749280245       -0.69618481898946
H            2.72940360300049        2.11706547272534       -0.11100828195206
H            3.60405248305048       -1.64307846993787        0.02622006710747
H           -1.60536348302035        3.09716019919074        0.08320226886211
H           -2.80311833664257        2.17878024086393       -0.87691857541991
H           -2.82155209949804        2.08481357366854        0.90215327479134
H           -1.02089108176487       -3.22406914924920        0.86425959577823
H           -1.21199392547444       -3.19337942824774       -0.91285485635973
H           -2.53186303545767       -2.60214466258048        0.13960809458782
H            1.38575888417475       -2.93528319181812        0.01346039875867
25
 energy: 29.472962263701 xtb: 6.6.1 (8d0f1dd)
C            3.27635945813328        1.19350987057489        0.06959929459131
N            2.31211585568983        0.14175173863761        0.04330811043727
C            2.62819228930817       -1.23745598088505        0.05008242904312
N            1.41148232657675       -1.92843439393022        0.04370596590874
C            0.36593865278668       -1.05657005177136        0.01580449957562
C            0.90402258452443        0.22410044881953        0.03368384999100
C            0.08764623573542        1.33857252183742        0.01932134346277
O            0.49733636828513        2.53176555917143        0.06128654543985
N           -1.35068560113390        0.98718310310555       -0.09446580647818
C           -2.17472101776491        2.18727195359726        0.05981057146468
C           -2.05768569055677       -0.25046123025427       -0.49956205778163
O           -3.26271611374524       -0.35804058970744       -0.80867649733702
N           -1.02750494246846       -1.30033307199774       -0.07373072031095
C           -1.43832279835208       -2.67960919130520        0.05915018483270
H            3.78233467321289        1.25482778674234        1.04255500131419
H            4.04193523350806        1.03359446748569       -0.69906716195835
H            2.75361861350993        2.12764212996586       -0.11822511161285
H            3.61327344573558       -1.63479314726760        0.02719788449139
H           -1.56646454611700        3.09753103539017        0.14939771376618
H           -2.80218050343807        2.24597454851034       -0.82443621775873
H           -2.78308603017791        2.09099428721784        0.96102908548455
H           -0.91340453131497       -3.22864963202394        0.87321155718033
H           -1.27481916675778       -3.21385511279888       -0.88718852492636
H           -2.51254846403141       -2.64549690698999        0.29243695230654
H            1.40209833678868       -2.93199153995224        0.03080500502119
25
 energy: 43.345569157697 xtb: 6.6.1 (8d0f1dd)
C            3.28112043216127        1.19142950265880        0.07652194073244
N            2.30593014027981        0.14376384484572        0.05279789283348
C            2.62105344249315       -1.23214898335995        0.06649228133603
N            1.40913604625465       -1.92477128875178        0.04207776469407
C            0.35351922305685       -1.05989142919248       -0.00769579767962
C            0.89886376849326        0.21865988561922        0.02639999876628
C            0.07325356941512        1.33455010717589       -0.00437606521044
O            0.48563446955329        2.51935824314157        0.06098076201115
N           -1.37971786765175        0.97731717354999       -0.13584482483909
C           -2.16689397175196        2.19634944745603        0.08931240058184
C           -2.11114085972997       -0.25943870184090       -0.62514465296037
O           -3.28918668042447       -0.34724166144071       -0.97752731568603
N           -1.04832595322931       -1.29979213842516       -0.11258130472468
C           -1.42766502007761       -2.68723901675576        0.08952418001908
H            3.78965967749154        1.25670284354384        1.04783230277640
H            4.04922372055378        1.02388401269181       -0.68857536175570
H            2.77428785815561        2.13426549765233       -0.11694073364699
H            3.61333623998842       -1.61946535950324        0.03829203269014
H           -1.53854540174975        3.09304962759665        0.19791826374400
H           -2.81226814560785        2.30861737438088       -0.77575253443085
H           -2.74567537019302        2.08970264697352        1.01063291980347
H           -0.82608298624033       -3.21883711022520        0.86653825841273
H           -1.34104631070722       -3.23889001379073       -0.86098868762455
H           -2.48155869268806       -2.67996650719448        0.42436358670181
H            1.42530334009088       -2.93093939463383        0.04277658960274
25
 energy: 46.775145345816 xtb: 6.6.1 (8d0f1dd)
C            3.27796923672746        1.18582435447808        0.08422484694406
N            2.29617541920360        0.13735612790768        0.06221074918771
C            2.60676425062450       -1.22050173148736        0.07973624822070
N            1.41143335285820       -1.92237769723010        0.03232209818799
C            0.34449803613132       -1.06407574689310       -0.02825434484008
C            0.89651564535662        0.21161334207321        0.01893871413063
C            0.06263281513605        1.33848443086021       -0.02590187299233
O            0.48100328461062        2.50579173637368        0.04634444647597
N           -1.39064024908466        0.97993568667158       -0.15883557976529
C           -2.16383010516863        2.19578637436602        0.10311748902289
C           -2.13262857739309       -0.26079241687870       -0.66680206559878
O           -3.28236967091256       -0.33480128382616       -1.07838722851921
N           -1.05185446292248       -1.30324897745570       -0.13417356214486
C           -1.42182990337444       -2.68758552092231        0.10531974825681
H            3.78425193686188        1.25066525133974        1.05551489235409
H            4.04800577601317        1.01256999195908       -0.67685983353602
H            2.78342169561714        2.13508449713609       -0.11259027980741
H            3.60567985123059       -1.60093100571774        0.04519192962553
H           -1.52767764500926        3.08430792376550        0.21663902736554
H           -2.82574423171546        2.34315647713613       -0.73920160357049
H           -2.71939068579406        2.08063722311111        1.03814097140984
H           -0.78091645628923       -3.20598091878024        0.84509074772856
H           -1.39221757892156       -3.25443725529596       -0.83578517094075
H           -2.44413060796176       -2.68724060336050        0.50438618723512
H            1.44709354211239       -2.93021165715821        0.04664734171717
25
 energy: 43.358968000446 xtb: 6.6.1 (8d0f1dd)
C            3.27056471155013        1.18077944901911        0.09171913036367
N            2.28711756354651        0.13014951335882        0.06829778811054
C            2.59398753273996       -1.20988341813553        0.09109856911972
N            1.41320321336981       -1.92196509839122        0.02127515507742
C            0.33968161299461       -1.06617781715552       -0.04612644456716
C            0.89406648371423        0.20730744564951        0.00753414864213
C            0.05807562938658        1.34250511441399       -0.04351584927610
O            0.48104617344608        2.49834125596080        0.03999399853908
N           -1.38586077433173        0.98834114014546       -0.17245201677723
C           -2.16333029381379        2.19188519993464        0.10367530730549
C           -2.12746540691100       -0.25709261175360       -0.66508630680249
O           -3.25394431975875       -0.32468068212988       -1.10163676341555
N           -1.04378416957933       -1.30904270326671       -0.14880404094942
C           -1.42204892957633       -2.68590281406932        0.10861288106760
H            3.77069398404619        1.24309879052258        1.06531718576142
H            4.04302348494071        1.00368494166401       -0.66498449672384
H            2.78084034932605        2.13139357229225       -0.10781015991902
H            3.59517593932742       -1.58940039508220        0.05233905210286
H           -1.52823749929541        3.07951603837005        0.21475971796767
H           -2.83612627925189        2.35372999806425       -0.72314130457414
H           -2.70927901346367        2.07032608617816        1.04241025019245
H           -0.74415339042830       -3.19947178946810        0.81526174697113
H           -1.43682174342047       -3.25682427009583       -0.82827009112787
H           -2.42016880641151       -2.68231454507348        0.55952333988019
H            1.45595861579025       -2.92927379878021        0.04704309917884
25
 energy: 40.547914958242 xtb: 6.6.1 (8d0f1dd)
C            3.26557706684608        1.17986171119476        0.09138083348324
N            2.28314304724603        0.12806237077965        0.06965335005533
C            2.58983761926635       -1.20548126659561        0.09876486956311
N            1.41393556265901       -1.92292411154834        0.01762752650439
C            0.33905574573602       -1.06643262033935       -0.04715103280701
C            0.89198353596634        0.20668848850192        0.00330184997478
C            0.05642046687889        1.34325372594727       -0.04305120696371
O            0.48053017105937        2.49826541226136        0.04536381846954
N           -1.37728153265028        0.99382215708288       -0.17367657262819
C           -2.16367793121724        2.18906569881864        0.10237979611237
C           -2.11494483902033       -0.25365365742462       -0.64738264714271
O           -3.23282578408863       -0.31954964384673       -1.13107546141370
N           -1.03486120791935       -1.31393315912137       -0.15158632249999
C           -1.42346600386091       -2.68556005275031        0.11038543401927
H            3.76328627497661        1.24099832837130        1.06606938172411
H            4.03821190640711        1.00042840006723       -0.66416864953186
H            2.77515043592174        2.12916898177689       -0.10895573479422
H            3.59016708643129       -1.58740951956317        0.05127568429475
H           -1.53056278085536        3.07871567845428        0.21159223573803
H           -2.84248767994346        2.35270547720086       -0.71892774779791
H           -2.70732445129114        2.06419982460224        1.04166000765608
H           -0.73625655172487       -3.20059309158229        0.79709808180975
H           -1.46210012930273       -3.25737739250104       -0.82166523885921
H           -2.40474428094535       -2.67422641881499        0.58083911949265
H            1.45544892136113       -2.92906671879945        0.04728252168848
25
 energy: 37.887771580500 xtb: 6.6.1 (8d0f1dd)
C            3.26324812401966        1.18042641376782        0.09254152305959
N            2.28183474702156        0.12846918768626        0.06975241767411
C            2.58988073272010       -1.20486645635191        0.10644680769413
N            1.41329054712013       -1.92377816774788        0.01640355412166
C            0.33935238425500       -1.06555616320650       -0.05112814357421
C            0.89036247209888        0.20745201485258       -0.00292650383287
C            0.05437220841790        1.34144939692558       -0.04444311725644
O            0.47838518162448        2.49901251062657        0.05342589799617
N           -1.37154181853156        0.99676434504656       -0.18036655123789
C           -2.16460628116929        2.18902234252970        0.10043928108597
C           -2.10504078307343       -0.25103514698676       -0.64859854700034
O           -3.21518062680262       -0.31852524542299       -1.12202604963764
N           -1.02915392142795       -1.31677066861092       -0.16263295524813
C           -1.42545126826080       -2.68606757554038        0.10997264249662
H            3.75909220611282        1.24129765712696        1.06830114858799
H            4.03702224418443        1.00040324072110       -0.66158471812176
H            2.77140089077464        2.12851536485915       -0.10841887431665
H            3.58827216171849       -1.58998870484775        0.05234993220949
H           -1.53280537209841        3.08074891335193        0.21016751674525
H           -2.84499789072652        2.35030234586905       -0.72104153556143
H           -2.70829568672849        2.06041440215361        1.03924535351156
H           -0.72547874349656       -3.20317985031897        0.78324134108103
H           -1.48452439665207       -3.25685909310731       -0.82177512007112
H           -2.39802697824599       -2.66941414030418        0.60024895710167
H            1.45080453508192       -2.92920832089932        0.04943963864062
25
 energy: 37.445619672264 xtb: 6.6.1 (8d0f1dd)
C            3.26413174758706        1.18159191464703        0.09150929294155
N            2.28312986601543        0.13010940902281        0.06927713556971
C            2.59262245165371       -1.20678491510235        0.11045770196272
N            1.41264672232714       -1.92401439729407        0.01883749171342
C            0.34025529995641       -1.06491172743506       -0.04754504087439
C            0.89051384403990        0.20831215315853       -0.00156435381152
C            0.05295828964393        1.33930494616707       -0.03803460270362
O            0.47643564180413        2.49916413665051        0.05783535614887
N           -1.37046788603412        0.99660430319564       -0.17851806286042
C           -2.16559446489360        2.18932732097718        0.09950843020810
C           -2.10197004664651       -0.24995013822255       -0.64859977387394
O           -3.21214475104172       -0.31915361096785       -1.12517276784347
N           -1.02874555629137       -1.31708365736027       -0.16658602376094
C           -1.42707803907674       -2.68581303228509        0.10916726454334
H            3.76147327914445        1.24309146754436        1.06669769183984
H            4.03742950504179        1.00240792036386       -0.66344978258713
H            2.77116047707367        2.12945166499981       -0.10861767889066
H            3.58961160873347       -1.59338668775677        0.04744872421951
H           -1.53442682659725        3.08166619378024        0.20877013261051
H           -2.84340708670933        2.34441765083708       -0.72501937309282
H           -2.71033745421983        2.06080776094157        1.03760229748303
H           -0.72291278457832       -3.20594333230575        0.77733694397907
H           -1.49320904386743       -3.25364671997393       -0.82280259107321
H           -2.39707849311144       -2.66696861026097        0.60696649235678
H            1.44721836798294       -2.92957141114903        0.05152899194304
25
 energy: 36.918557421400 xtb: 6.6.1 (8d0f1dd)
C            3.26543405286960        1.18272274432745        0.09068291401978
N            2.28479964221952        0.13152198178079        0.06939148105231
C            2.59560470622409       -1.20863446615169        0.11613756893674
N            1.41256074173091       -1.92388692075188        0.02210852943942
C            0.34159881991375       -1.06464597738776       -0.04287635129824
C            0.89153678151380        0.20868731120855        0.00069969218482
C            0.05098186166828        1.33701394507396       -0.03242602035774
O            0.47368885987310        2.49844532567546        0.06078031550254
N           -1.37009871991052        0.99553919356564       -0.17689024540981
C           -2.16695756529754        2.18946022319054        0.09895897250803
C           -2.09847378274063       -0.24925155914595       -0.64972655251838
O           -3.20917727550266       -0.32064335511050       -1.12575013005579
N           -1.02853061083395       -1.31735190582018       -0.17158797939651
C           -1.42851581382936       -2.68528242430171        0.10852269775005
H            3.76506836335899        1.24508797126466        1.06482973602321
H            4.03780841446662        1.00482237374281       -0.66575669029953
H            2.77166164135307        2.13072329544213       -0.10842599793828
H            3.59121606678853       -1.59584828393246        0.03845897964576
H           -1.53590584398256        3.08170795287505        0.20807288304082
H           -2.84338616426580        2.34000352091908       -0.72884803784711
H           -2.71183795955509        2.06165379504943        1.03709308254328
H           -0.72823104405763       -3.20676095036842        0.77352705425337
H           -1.49967319163721       -3.25274229705801       -0.82011272734890
H           -2.39362108237330       -2.66344596650007        0.60616728090018
H            1.44466376994230       -2.92986692541490        0.05400344081739
25
 energy: 36.725955192220 xtb: 6.6.1 (8d0f1dd)
C            3.26569832667472        1.18274556148913        0.09191681212025
N            2.28508892166357        0.13167753219709        0.07037882655262
C            2.59609472588610       -1.20902229690111        0.12003609028243
N            1.41263928379710       -1.92371868968462        0.02230987977123
C            0.34193511078317       -1.06478181385471       -0.04292615851293
C            0.89211455113234        0.20847940656811        0.00131930491748
C            0.05050816145230        1.33657779291957       -0.03208728092007
O            0.47335571539163        2.49791217748209        0.06013003566064
N           -1.37035325337423        0.99484445210880       -0.17594211591432
C           -2.16726526099279        2.18916333237498        0.09804469056275
C           -2.09772232509314       -0.24907916496991       -0.64885628297663
O           -3.20907664462804       -0.32068404779709       -1.12644273616610
N           -1.02880925413914       -1.31724051952483       -0.17463344779061
C           -1.42905326721371       -2.68465082495048        0.10748413724464
H            3.76561572817812        1.24508390608103        1.06589020811440
H            4.03797522057123        1.00515869496144       -0.66484805056129
H            2.77207050788817        2.13093085159571       -0.10715455053879
H            3.59126311875894       -1.59556139685801        0.03425123745292
H           -1.53636637316532        3.08123529514420        0.20624678575707
H           -2.84344562541663        2.33842490825878       -0.73031473028354
H           -2.71208624299919        2.06233236903577        1.03618110240658
H           -0.72168956191258       -3.20693171752435        0.76886849022667
H           -1.50805367242954       -3.25161101060273       -0.82272368509179
H           -2.39300266821569       -2.66238828537608        0.61543338574424
H            1.44477944533895       -2.92986791000078        0.05447194808953
25
 energy: 36.607919501422 xtb: 6.6.1 (8d0f1dd)
C            3.26536188091952        1.18239078614079        0.09265212740719
N            2.28460227993399        0.13132418919892        0.07102679156560
C            2.59532044483382       -1.20878208557964        0.12252963404653
N            1.41263052092677       -1.92360418407307        0.02172327399659
C            0.34178049253361       -1.06495162790475       -0.04408239928805
C            0.89219055728017        0.20824496170484        0.00098621875178
C            0.05074752936987        1.33706728160000       -0.03381968892858
O            0.47376880529828        2.49777997791228        0.05907447817057
N           -1.37066723873159        0.99444781119458       -0.17598334916426
C           -2.16710373400780        2.18895029567594        0.09796962019762
C           -2.09742527216343       -0.24921076332950       -0.64888315507899
O           -3.20936642472891       -0.32061108362549       -1.12469341414851
N           -1.02903444200609       -1.31704125684766       -0.17545586253196
C           -1.42900368356842       -2.68424028899430        0.10743350363920
H            3.76499232244616        1.24453753313408        1.06667941062671
H            4.03773941638459        1.00451037584876       -0.66400459950802
H            2.77215511392978        2.13069248250059       -0.10675026826053
H            3.59047243562325       -1.59437141990750        0.03186758235717
H           -1.53609794144665        3.08086937730859        0.20589560468727
H           -2.84344896721833        2.33880183951206       -0.72983798564836
H           -2.71187528022785        2.06226521148438        1.03610601843154
H           -0.72079750326820       -3.20613529370700        0.76826632521351
H           -1.50814814673651       -3.25167033811973       -0.82173383304966
H           -2.39212134050306       -2.66249075237147        0.61586406801095
H            1.44554284306341       -2.92974442658373        0.05420379465209
25
 energy: 36.159304424009 xtb: 6.6.1 (8d0f1dd)
C            3.26480841160547        1.18195626980158        0.09426183889557
N            2.28383908091780        0.13100267776570        0.07264278543470
C            2.59423309729185       -1.20864336017525        0.13201764629607
N            1.41257895784226       -1.92334547133310        0.02096421305855
C            0.34190505959888       -1.06508823958178       -0.04657342890821
C            0.89249685945729        0.20804479819289        0.00014109461249
C            0.05133498073028        1.33782579480918       -0.03661372581614
O            0.47424313526878        2.49769968816067        0.05719602055744
N           -1.37115285676648        0.99300269246882       -0.17581311334293
C           -2.16697921077866        2.18814622545736        0.09746060322715
C           -2.09533305559678       -0.24967745665847       -0.64946690226188
O           -3.20929599667400       -0.32119401519882       -1.12058008885032
N           -1.02912902697541       -1.31662261829711       -0.17868750208095
C           -1.42882579285376       -2.68324122601745        0.10698392260897
H            3.76397802025423        1.24393213232112        1.06834465686881
H            4.03736174492901        1.00343454173975       -0.66221851137750
H            2.77225180081218        2.13034445018906       -0.10590054697478
H            3.58891433667986       -1.59201539133951        0.02308569216591
H           -1.53559390842961        3.07976252261871        0.20533877901430
H           -2.84371050872736        2.33924216385985       -0.72979768094728
H           -2.71177036707087        2.06177146064198        1.03562683274587
H           -0.71971720351800       -3.20435052271988        0.76566967676786
H           -1.51194883972053       -3.25251086773639       -0.82024817880196
H           -2.38895510850232       -2.66101485244468        0.61874084151765
H            1.44668105816221       -2.92943279435223        0.05445897173797
25
 energy: 35.896433146891 xtb: 6.6.1 (8d0f1dd)
C            3.26474207931896        1.18186492527241        0.09451799414050
N            2.28369504650981        0.13101347064882        0.07317731761249
C            2.59397730188567       -1.20894038092876        0.13867170021987
N            1.41212067776042       -1.92335763711209        0.02119170394223
C            0.34188830051793       -1.06484752909773       -0.04764644983300
C            0.89243245476163        0.20826958041724       -0.00067831629342
C            0.05179374383902        1.33803123262592       -0.03683829022686
O            0.47405722172503        2.49805411039074        0.05675892854693
N           -1.37114418052941        0.99250039250516       -0.17577594434769
C           -2.16707419447944        2.18767567466047        0.09715323319555
C           -2.09385190076939       -0.24989408135351       -0.64975503881545
O           -3.20890590843895       -0.32169188602332       -1.11901034873878
N           -1.02906564473340       -1.31640406816758       -0.17969002914708
C           -1.42904514028210       -2.68283768729495        0.10669723606151
H            3.76385624296407        1.24410192593288        1.06860973042519
H            4.03735879490173        1.00299165389017       -0.66180123461503
H            2.77225635289160        2.13016593195213       -0.10597951586609
H            3.58785343880520       -1.59171858424392        0.01769379343191
H           -1.53547122682387        3.07921937948996        0.20547511946361
H           -2.84361331214819        2.33920619802359       -0.73016583581870
H           -2.71216674071975        2.06126525968168        1.03519001643707
H           -0.71838859629115       -3.20426300277559        0.76380055501556
H           -1.51321820366255       -3.25172836171819       -0.81995555643207
H           -2.38790283374895       -2.66032735124999        0.61989368232324
H            1.44603089468241       -2.92932056335354        0.05549944546587
25
 energy: 35.815337912110 xtb: 6.6.1 (8d0f1dd)
C            3.26490236102630        1.18197678860502        0.09423997513298
N            2.28396822431361        0.13107702979272        0.07320340347634
C            2.59417450219293       -1.20907450386511        0.14306400136885
N            1.41183182433080       -1.92337807378551        0.02181063403202
C            0.34195498160200       -1.06446671736062       -0.04829200457607
C            0.89241815547506        0.20861732960648       -0.00162471379707
C            0.05236497907272        1.33817272624241       -0.03658280588724
O            0.47371006982136        2.49857390049552        0.05689261829709
N           -1.37094164129026        0.99273119193294       -0.17624660925827
C           -2.16714914485788        2.18736887545020        0.09721281789288
C           -2.09323403694245       -0.25016305589863       -0.64998474864516
O           -3.20846358769176       -0.32218947974125       -1.11907639852381
N           -1.02866398704210       -1.31622491746801       -0.17901572597565
C           -1.42886821819180       -2.68297687906734        0.10647944343470
H            3.76407123319515        1.24451419769586        1.06834072192048
H            4.03749497097642        1.00293433385795       -0.66197138811455
H            2.77221561569259        2.13011619557169       -0.10634588585317
H            3.58707055115407       -1.59204104092897        0.01448007826776
H           -1.53560109120551        3.07898116256345        0.20611106904945
H           -2.84341921343334        2.33940394029786       -0.73004185468874
H           -2.71252233659800        2.06053816066103        1.03509402727267
H           -0.71904863884968       -3.20431255320928        0.76366907675200
H           -1.51318156279718       -3.25189125582733       -0.82098441159207
H           -2.38799950993524       -2.66004279104607        0.61984997848510
H            1.44513016791852       -2.92921596240299        0.05675259767686
25
 energy: 35.854485351819 xtb: 6.6.1 (8d0f1dd)
C            3.26501725514893        1.18199957469042        0.09395541845970
N            2.28420841662250        0.13100498365709        0.07318055873290
C            2.59442637955286       -1.20921423811575        0.14568257421749
N            1.41158675954841       -1.92339938819146        0.02282301350223
C            0.34187275129120       -1.06436233449667       -0.04802569237204
C            0.89252785823453        0.20863653588605       -0.00202517878457
C            0.05252218300815        1.33806563208049       -0.03645953044434
O            0.47333784325014        2.49860455491998        0.05701526807154
N           -1.37085217080484        0.99322162827171       -0.17685013158904
C           -2.16716480258606        2.18747066757886        0.09730188977703
C           -2.09355271695196       -0.25025662815134       -0.64982792685411
O           -3.20834185101052       -0.32229556568217       -1.11980722111098
N           -1.02873894168706       -1.31605644565362       -0.17792806272078
C           -1.42899635456355       -2.68316734334659        0.10645772503813
H            3.76447312573055        1.24469905043763        1.06793077813357
H            4.03751017821712        1.00306514669033       -0.66238969470547
H            2.77221814419544        2.13013240529329       -0.10652499115862
H            3.58662761325663       -1.59254657907713        0.01183874188396
H           -1.53565843886322        3.07907258162256        0.20647343203510
H           -2.84359087500134        2.33982856956113       -0.72989380042845
H           -2.71243703296306        2.06037855586196        1.03524263445320
H           -0.71878962239997       -3.20468249231983        0.76405281520267
H           -1.51148584733766       -3.25110732375330       -0.82146893888999
H           -2.38885839434965       -2.66081257402029        0.61839991913105
H            1.44435320839880       -2.92925037157133        0.05788029656720
25
 energy: 35.892655404609 xtb: 6.6.1 (8d0f1dd)
C            3.26494586904519        1.18201881295348        0.09401123343826
N            2.28422318018233        0.13095436275285        0.07322112448847
C            2.59458606645453       -1.20916160453744        0.14765062343093
N            1.41165556431378       -1.92334943052883        0.02340028185969
C            0.34195644336044       -1.06445350405285       -0.04792295641465
C            0.89278253334424        0.20848762780267       -0.00217765094101
C            0.05249971356393        1.33804898965792       -0.03676373225697
O            0.47334576617172        2.49839012332238        0.05715482953419
N           -1.37078005974028        0.99352957885711       -0.17711438758874
C           -2.16704177445851        2.18762408212428        0.09740680303172
C           -2.09392543296507       -0.25038342138891       -0.64965682990757
O           -3.20828767607110       -0.32237345397960       -1.12014705514226
N           -1.02881999681660       -1.31589065516837       -0.17759645482560
C           -1.42883616118927       -2.68325988089281        0.10632159712229
H            3.76458683785464        1.24460214693660        1.06786661094582
H            4.03737762208025        1.00322755147600       -0.66251791260722
H            2.77218709110345        2.13020664812395       -0.10638507803358
H            3.58635755099241       -1.59239371482100        0.00930497251964
H           -1.53571828741628        3.07928153716991        0.20635682633067
H           -2.84358594775592        2.33975731834791       -0.72964531905087
H           -2.71215457581129        2.06043208119535        1.03537841874526
H           -0.71962849181948       -3.20440742471716        0.76482212946338
H           -1.51054675502675       -3.25142577499341       -0.82177235893898
H           -2.38934695060518       -2.66117251651902        0.61750518498821
H            1.44438253914513       -2.92926087694902        0.05833299595630
