  72
        -99.31574935
 N         -1.5901124041        3.0568374957        1.6247879154
 C         -2.0510682769        1.8611679176        1.5004781711
 C         -3.3743710775        1.5785894238        1.0996765603
 C         -3.7859899864        0.2218245036        0.8777389511
 C         -4.8246214127       -0.0810036779       -0.0299772485
 C         -5.2564390514       -1.3730573076       -0.2425793101
 O         -6.2235150887       -1.7422813276       -1.1079433401
 C         -6.9122406017       -0.7550722247       -1.8394112699
 C         -4.6648033853       -2.4451003028        0.4860144423
 O         -5.1762910000       -3.6626517378        0.2398785567
 C         -4.7133724669       -4.7695974448        0.9788388668
 C         -3.6337974584       -2.1555510843        1.3728684719
 C         -3.1953526509       -0.8596400433        1.5556870376
 C         -0.8223748625        3.8268249916       -2.1936955633
 C         -0.8156776546        2.4177511199       -1.7749124747
 C          0.4168544111        1.9816234643       -1.0980679412
 N          0.6599875663        0.7337517330       -0.7248268435
 C          1.9638952573        0.3641711064       -0.2252139149
 C          2.8611826131       -0.2026269492       -1.3459508457
 C          4.3011656443       -0.2153178665       -0.9134200020
 C          5.0837959223        0.9176326896       -1.0747612823
 C          6.4098727565        0.9297533595       -0.6732362820
 C          6.9828387785       -0.1952129731       -0.0970335516
 O          8.2575199298       -0.2999325602        0.3204285033
 C          9.1239700624        0.8013746430        0.1690517734
 C          6.1866186353       -1.3611291340        0.0784855331
 O          6.8229249188       -2.4065363355        0.6422453462
 C          6.1338767534       -3.6203814155        0.8229720525
 C          4.8608514129       -1.3481409710       -0.3284136023
 C         -0.2833203144       -0.3205441210       -0.9988382181
 C         -4.3620530773        2.7049645541        0.9478069126
 C         -4.4586477798        3.4938548192        2.2588274009
 C         -3.9946010804        3.6481391676       -0.2009326938
 H         -5.2687183394        0.7202604438       -0.5966905466
 H         -7.4334939349       -0.0564855948       -1.1787706488
 H         -7.6407914610       -1.2954120250       -2.4404033934
 H         -6.2383765358       -0.2009489007       -2.5007392471
 H         -4.8485666756       -4.6180388665        2.0534722238
 H         -5.3206780391       -5.6120223604        0.6539236916
 H         -3.6601101259       -4.9796429463        0.7682531411
 H         -3.1750719918       -2.9461578626        1.9451834448
 H         -2.4276262402       -0.6801801216        2.2916189266
 H         -1.6958913616        4.2329213345       -2.6610781283
 H          0.0083498970        4.4733736273       -1.9996311641
 H         -1.6777658611        2.2371141779       -1.1062897315
 H         -1.0170716723        1.7656291024       -2.6413117463
 H         -1.3998694881        0.9904028403        1.6590481423
 H          1.1765395670        2.7142733216       -0.8778169784
 H          1.8498745033       -0.3766176962        0.5695447147
 H          2.4446629508        1.2488921450        0.1965808181
 H          2.7560677089        0.4372767855       -2.2244717431
 H          2.5345688754       -1.2088709637       -1.6100268145
 H          4.6662159208        1.8017599275       -1.5323863798
 H          6.9943756924        1.8228527371       -0.8212635853
 H          8.7754263802        1.6665621618        0.7412369409
 H          9.2379420169        1.0800898253       -0.8827777311
 H         10.0846099841        0.4730741869        0.5610683888
 H          6.8539517189       -4.2999978584        1.2747175507
 H          5.2788494265       -3.5010150494        1.4959774546
 H          5.7948914469       -4.0347178166       -0.1316703192
 H          4.2520220494       -2.2301918321       -0.2060191467
 H         -0.3409550216       -0.5316921847       -2.0703072827
 H         -1.2801422440       -0.0419324789       -0.6514460470
 H          0.0230988759       -1.2273820814       -0.4835015214
 H         -5.3510321485        2.2797804034        0.7537491716
 H         -3.5030537236        3.9618387691        2.4771756634
 H         -4.7274271270        2.8340523223        3.0809819125
 H         -5.2197695756        4.2644802019        2.1685446845
 H         -3.0124525734        4.0760691217       -0.0210603249
 H         -3.9940620628        3.1210274940       -1.1542601656
 H         -4.7193700731        4.4565870129       -0.2580719129
 H         -0.6290779513        3.1424837338        1.9324597218
