25
 energy: -42.154029594582 gnorm: 0.001601123408 xtb: 6.6.1 (8d0f1dd)
C            3.20220424340213        1.08089077321244        0.02555932589938
N            2.17907577449968        0.07474685524274        0.09274005408643
C            2.36039712461207       -1.26197707248608        0.17724041531629
N            1.22905634214853       -1.92508644681359        0.24545993553533
C            0.26017087941332       -0.98794844374480        0.20291698917515
C            0.83197474435552        0.27865609464283        0.10540261979590
C            0.04692964007061        1.49070818426507        0.01370907913981
O            0.47561768723972        2.61353903262894       -0.06850272122268
N           -1.33234419098218        1.21361526204186        0.02097004515923
C           -2.23874545676892        2.35159106927569       -0.08312837294293
C           -1.95257068700281        0.00095738017755        0.11190585598598
O           -3.13777510859647       -0.15064761846372        0.09360913113669
N           -1.09756474044812       -1.18567443513131        0.24601530940859
C           -1.66140242609744       -2.35534791180096        0.40410855351356
H            3.72293890707261        1.15223877296352        0.98261391077328
H            3.92805341786105        0.82454589230960       -0.74625942800784
H            2.74684481949852        2.04387887486276       -0.20150213659679
H            3.32442475588966       -1.73180737962234        0.18519653756480
H           -1.64098728350948        3.26000433641752       -0.10923430137787
H           -2.83747125825415        2.26974838616147       -0.99042523389887
H           -2.91259372671722        2.36705291221589        0.77338735143586
H           -1.03814131506090       -3.22696323463299        0.51204439169035
H            0.56548272078672       -4.26490855680195       -1.43291679210028
H           -2.73983489272982       -2.40597088927230        0.41794350619464
H            0.87669154341506       -3.70760329604682       -0.94768240776645
