72
 energy: -99.639939280375 xtb: 6.6.1 (8d0f1dd)
N           -1.49515853831802        2.95456133847991        2.31713584351990
C           -1.49358526086701        2.20048978583367        1.31276953279306
C           -2.64756469954873        2.08417257929118        0.35561744660379
C           -3.21844333732204        0.67653683149176        0.41898679084902
C           -4.11979299333548        0.24402187336246       -0.55579739912081
C           -4.68583968509715       -1.01552193488325       -0.50871926667201
O           -5.56657475137769       -1.51530880512376       -1.42138607622001
C           -6.01270556998900       -0.68322170117186       -2.46211411792746
C           -4.35841809751463       -1.89283375701528        0.54903724588007
O           -4.97315058149369       -3.10862170851995        0.51797796929903
C           -4.75898669761937       -3.99530768769569        1.58680644691131
C           -3.46436005315282       -1.46457525073272        1.51147149214836
C           -2.90329894004748       -0.19402227526880        1.44450744427875
C           -2.06862131522653        2.36778271316027       -1.05590574552152
C           -1.23307781179278        1.22844057348185       -1.68005752560682
C            0.11031590360758        1.06844587686101       -1.07743684928403
N            0.63592935101362       -0.10728984359277       -0.59783383655136
C            2.04326816829645       -0.19881966077188       -0.33505455915118
C            2.86122652661743       -0.84416014228655       -1.48862682027169
C            4.32450553321089       -0.72443203870655       -1.20334889518629
C            5.04145262880615        0.37067683603569       -1.66451674668428
C            6.27953573694906        0.64305584042340       -1.14261624161034
C            6.76788291257600       -0.00214194529033       -0.00325697673604
O            7.21436765076498        1.01330320063259        0.94373112838640
C            8.61712187079683        1.37935852225160        1.05774156942679
C            6.26950808699158       -1.36733267454112        0.12810688558641
O            6.98811424635721       -2.39775635104208        0.70991768632016
C            6.37697533692758       -3.66143842033847        0.94717162007597
C            5.02933151109495       -1.65703638508462       -0.44529875875592
C           -0.11827857785039       -1.33171027749987       -0.64686584964535
C           -3.80473571285283        3.07725692459228        0.65701625129600
C           -4.46234755304204        2.78700051212399        2.00511296389501
C           -3.37180862291216        4.54114979637369        0.60627407011154
H           -4.38791072565888        0.91237881988165       -1.35770726007405
H           -6.51095612397002        0.21541471837954       -2.08205243617143
H           -6.73017855421475       -1.27929657561370       -3.02456177201456
H           -5.19351065387159       -0.38953541417158       -3.12594375330429
H           -5.06368287785613       -3.55655966812085        2.54364455218155
H           -5.38280628981059       -4.86231224670292        1.37421173425959
H           -3.71174467110483       -4.31155985926886        1.64927289518939
H           -3.19629393550935       -2.10662721186425        2.33614069441787
H           -2.22662192016040        0.11507175866070        2.22542546592046
H           -2.89737113415719        2.58862994071103       -1.73266169873955
H           -1.44569827838643        3.26245505939528       -0.99936806553582
H           -1.79950786384548        0.30002013078522       -1.63741378547853
H           -1.11070360430453        1.49041358918768       -2.74181373976705
H           -0.64141568942102        1.58184512821637        0.99852504106639
H            0.76149197629982        1.92326664309464       -1.04409317816489
H            2.19095664956842       -0.78676809303735        0.57603300356999
H            2.43331178619384        0.80576143222684       -0.15867159444235
H            2.61899745326219       -0.31210368517792       -2.41059147609755
H            2.55116466851578       -1.88304078193866       -1.59914518635155
H            4.58767409131351        1.08549628857236       -2.32924504615379
H            6.85338059426189        1.48903257637230       -1.48488730950205
H            8.86516713657508        1.88780381954385        2.02994774390100
H            9.01776884526364        2.11779261670266        0.36344908917882
H            8.97177416299516        0.39425348358790        0.73360178166907
H            7.14247956353179       -4.29718110627566        1.39792233366086
H            5.54816951253594       -3.56286186449299        1.65583491898980
H            6.01064194659672       -4.18055167100244        0.05010944051957
H            4.53210707221265       -2.59622224760786       -0.22675945003751
H           -0.31654835321984       -1.66731301943672       -1.67189087812774
H           -1.07453020794527       -1.19990505692021       -0.13495859206014
H            0.44704749059171       -2.10724969714008       -0.13305867734265
H           -4.55819073705456        2.91825470062339       -0.12367504893584
H           -3.74615676071381        2.94279649481472        2.80375411068613
H           -4.82854194767258        1.76431399998873        2.05024623121353
H           -5.30420201756984        3.45856556140860        2.15494776394101
H           -2.59756778147825        4.72556206815457        1.34316199413478
H           -3.00215111114430        4.81862733677608       -0.37711577677610
H           -4.22487556600313        5.17508931210116        0.83624341941842
H           -0.64123727877413        2.95179498381170        2.87099393906465
