25
 energy: -5.395428510781 xtb: 6.6.1 (8d0f1dd)
C            3.24543759664793        1.20149808890461        0.07101438811842
N            2.32943052530624        0.10119692287495        0.00647241339791
C            2.65918188998217       -1.25207299876231        0.00714594681107
N            1.45559154506606       -1.95423363813147        0.00838000896189
C            0.42081858667902       -1.08142388841957       -0.00941026662345
C            0.93617686200905        0.20473149743563       -0.00942573263908
C            0.12135139863613        1.35972626218668       -0.00207244655577
O            0.50336585678770        2.53335423816464        0.01399378772956
N           -1.27056377864829        1.03353020870698       -0.02267578357490
C           -2.21694025174051        2.14030682502061       -0.03699143781424
C           -1.82171873802684       -0.20988350984805       -0.04470089672443
O           -3.02221398920693       -0.39336487558448       -0.07059052014031
N           -0.93271109421984       -1.30997856959729       -0.03299286143163
C           -1.48900365772363       -2.64148748524211       -0.06342284504177
H            3.62233315711491        1.32155160034493        1.09366852843930
H            4.11171843498227        0.98943604823471       -0.57103957080279
H            2.70578283971899        2.10745477732778       -0.19535591058721
H            3.64478953594344       -1.65447614935580        0.00898237340739
H           -1.65219577398035        3.07102197488518       -0.01220171880746
H           -2.82571343135574        2.09881464585803       -0.94077328823643
H           -2.87591294234404        2.07323802768439        0.82937382753881
H           -1.20048257268215       -3.20059502091979        0.82803923912165
H           -1.16730923977036       -3.17367199427089       -0.96105206963092
H           -2.57473858575779       -2.53805608026397       -0.07996013233334
H            1.34912268404892       -2.95498269978047        0.00149713755219
