25
 energy: 97.363373018475 xtb: 6.6.1 (8d0f1dd)
C            2.69152358562558        1.62132188185713       -0.01360723565206
N            2.47605085642449        0.23940420128120        0.02139500990210
C            3.70096211131531       -0.38831570889211       -0.09733900705021
N            1.30226241828125       -2.23064860688221        0.02618249847605
C            0.44795782402596       -1.29964736606534        0.02718680226226
C            1.01916777050616        0.02035290474636        0.07220271616345
C            0.15231842027803        1.14785817136660        0.10221435483239
O            0.56607616727662        2.32358799383377        0.13328890061579
N           -1.24790651038663        0.96927128394749        0.05676104871756
C           -2.15613814418639        2.11898853031663        0.07297133377014
C           -1.84887425712683       -0.25938102848081       -0.01925050024869
O           -3.05641975530344       -0.36445334390146       -0.07900515565716
N           -0.99579721082976       -1.35721478132458       -0.01072919521639
C           -1.67039772941760       -2.63269730512281       -0.08836544548755
H            2.71874355413182        2.14877039079939        0.90919498738934
H            4.80863884195754        0.29964923552540        0.30205176873882
H            2.94310527910242        2.05908575833114       -0.95393897966611
H            4.16389784411310       -1.35394594147139       -0.24719055388970
H           -1.55035197131793        3.01523872063380        0.12676666387497
H           -2.77663053374479        2.16531990689239       -0.82974564248118
H           -2.83259485622344        2.06087811061999        0.93301238155279
H           -1.49474573006840       -3.24267554301702        0.79767894857379
H           -1.38387973836226       -3.17554821198700       -0.99141194043996
H           -2.73933322352235       -2.39848318303027       -0.12525592386011
H            0.98178256382757       -3.18247970016867        0.03356438670747
