25
 energy: 23.809078397928 xtb: 6.6.1 (8d0f1dd)
C            3.20397732906506        1.31091582311813        0.07246719139900
N            2.39060973868604        0.11611000742793       -0.01481882648820
C            2.88418024473245       -1.20263963399962       -0.07558991419375
N            1.57202461180728       -2.02294083762645       -0.01929670008566
C            0.49763047427954       -1.17053484027117        0.00171477225688
C            0.98973578898692        0.11389624092979        0.01775547271168
C            0.12769389516710        1.25753713153978        0.05276387758643
O            0.51057600812106        2.42229651847911        0.07467605075300
N           -1.26623563332269        0.98000147383868        0.03369264985073
C           -2.19909743322804        2.11251279182668        0.01960908342744
C           -1.80421124383408       -0.27131206251227       -0.02288746171647
O           -3.00973062240771       -0.44556667792208       -0.09716421899648
N           -0.89141036681008       -1.36660354315596       -0.00275382481905
C           -1.54934405677256       -2.64907512970265       -0.07452441881880
H            3.22565149265781        1.71596461003406        1.11228749927415
H            4.33969605707859        0.88915815909431       -0.09801346418256
H            2.76725665385342        2.09776808346755       -0.55932068632298
H            3.89968058759605       -1.60714065213044       -0.10872446005737
H           -1.60342230480339        3.02486199065248        0.05143170933540
H           -2.81145559725619        2.13056196075309       -0.88835932983093
H           -2.87109826270785        2.06374536222214        0.88159751764551
H           -1.32610618268179       -3.24436036070166        0.80608165160570
H           -1.26214805279414       -3.18002879409896       -0.98157425930242
H           -2.63121797462933       -2.46445630299137       -0.08887194474428
H            1.28449282241791       -3.00165520647704        0.06033214957265
