  25
        -42.01262199
 C          3.3040011585        1.1599318611       -0.4295327328
 N          2.3583818606        0.1005582198       -0.1836363495
 C          2.6507854094       -1.1963020122       -0.2074819291
 N          1.5653241220       -1.9199061651        0.0614807176
 C          0.4794544676       -1.0463512636        0.2862709022
 C          1.0390134770        0.2537215167        0.1147129614
 C          0.3173886953        1.5300830726        0.2196470926
 O          0.8462093716        2.6233793489        0.0216475310
 N         -0.9597202226        1.3482318660        0.5371136067
 C         -1.9078101534        2.3420522111        0.7501145659
 C         -3.4641353533       -1.3680659258       -1.2856673111
 O         -3.8889318951       -0.3304545100       -1.1821065119
 N         -0.7354144122       -1.3086560930        0.5779380237
 C         -1.3453553920       -2.5639969534        0.7004619720
 H          4.0583861817        1.1800071743        0.3573586946
 H          3.7970832440        1.0071078328       -1.3888418935
 H          2.7697085943        2.1115246592       -0.4369950719
 H          3.6269694829       -1.5956889473       -0.4148868791
 H         -1.4840854259        3.3542398621        0.7048280044
 H         -2.7058760561        2.2508980876        0.0038015877
 H         -2.3680667170        2.1863390376        1.7326840590
 H         -0.6773291532       -3.4303712403        0.6646752094
 H         -2.0933610712       -2.6367773717       -0.1057801846
 H         -1.9190674310       -2.5709598539        1.6309058589
 H          1.5347754545       -2.9278296329        0.1051492100
