72
 energy: 8.784530417316 xtb: 6.6.1 (8d0f1dd)
N           -1.46378911564765        3.06612523794634        1.96896977864366
C           -1.67845191329316        2.26852463198628        1.01516602449219
C           -2.90559447225628        2.16550239638357        0.20564297341675
C           -3.41204371237125        0.73194371393083        0.28675784071157
C           -4.41267069705106        0.31225552018100       -0.58722769636196
C           -4.91406406134771       -0.97364298614060       -0.55163432690805
O           -5.89447374124866       -1.46275862444608       -1.36393255026381
C           -6.51646525611990       -0.58010039376139       -2.25993810805146
C           -4.39757839433472       -1.89643815377609        0.38111149047230
O           -4.94869580650964       -3.14472739730286        0.33452584777926
C           -4.54703260669289       -4.08037741586281        1.30191317643065
C           -3.40668595026370       -1.48026194813165        1.24928274957798
C           -2.92546552590012       -0.17715083374601        1.20648505758976
C           -2.37666029537930        2.44702161031128       -1.22272907820610
C           -1.39566552704676        1.34470971769582       -1.74859278345025
C           -0.09416764138707        1.03724265765162       -0.91238191915427
N            0.61244140009078       -0.14976718085105       -0.49509247011787
C            2.02071992231227       -0.14425992693505       -0.11444240348936
C            2.99479299055483       -0.63988764469098       -1.21840463512758
C            4.43076778833959       -0.51284623791029       -0.79402839569832
C            5.13519729587826        0.65826354372845       -1.01162056347476
C            6.44936707486042        0.79156364948853       -0.58597680064473
C            7.08516982472305       -0.24955173564995        0.06641171694814
O            8.37064529803648       -0.23258140490008        0.52127551708586
C            9.14297507354047        0.91864532989769        0.29606495110484
C            6.37745365895672       -1.44961024561912        0.29654618228817
O            7.08254288332190       -2.42149508893908        0.94370126514173
C            6.46993507521212       -3.66264019974946        1.17373592427894
C            5.06801050785505       -1.56174251611353       -0.13292778300071
C           -0.00658329148938       -1.44217485740816       -0.48942384780713
C           -4.02494530421152        3.12875256452749        0.61050636266101
C           -4.55339731630404        2.79211137156746        2.00317633484455
C           -3.58690834910613        4.58847609968012        0.57257535963896
H           -4.80356731806388        1.01468842818302       -1.30468452038182
H           -6.97858629799834        0.26507315597907       -1.73790336873278
H           -7.28976982080929       -1.16445593942831       -2.75617571467013
H           -5.81420955233255       -0.20075703924624       -3.01000122232308
H           -4.73435577138662       -3.71862617779441        2.31895830802902
H           -5.14709558894536       -4.96993485879497        1.11749670093484
H           -3.48716004737659       -4.33678377941655        1.20387976552442
H           -2.99383636925760       -2.16417440860623        1.97641686732547
H           -2.15705652166767        0.11530549099765        1.90479943508146
H           -3.23679126842132        2.53625914781288       -1.89367527446459
H           -1.85044982402244        3.40026701622778       -1.21388206311564
H           -1.98458531178211        0.43433742205363       -1.86523839538627
H           -1.12800929715555        1.62256161766266       -2.77442683094630
H           -0.99164020193621        1.53057214412222        0.51096978584337
H            0.67504972762448        1.82718678641203       -1.05851746106342
H            2.18178711478908       -0.77858370784900        0.77462190840646
H            2.32821509484572        0.86331223431880        0.16895237358898
H            2.82311839479345       -0.04522758534108       -2.11303589391904
H            2.76377794321892       -1.68185747604829       -1.44375432298794
H            4.66237753857742        1.48374079176742       -1.52176704303419
H            6.97140879518027        1.71686985223379       -0.77233851161913
H            8.71840556828072        1.79480192289152        0.79647779190021
H            9.25507548352825        1.13156686724611       -0.77332741181381
H           10.12037036682191        0.70539020544854        0.72434923025836
H            7.22247839514288       -4.27892365566505        1.66677038979324
H            5.59979555451882       -3.56542512935021        1.83023141414788
H            6.16916972968241       -4.14481801227675        0.23758665206602
H            4.52019551058108       -2.47544407689618        0.03682025000407
H           -0.02591384533956       -1.91106494181544       -1.48184263767938
H           -1.02795233054951       -1.39444795451390       -0.11446230473549
H            0.55034406909892       -2.10849474590306        0.16967674228408
H           -4.82446964701612        2.98448165266159       -0.12035233125763
H           -3.77176594568707        2.96167025021195        2.73965011723473
H           -4.88312165854411        1.75639808294520        2.05741598061525
H           -5.39432078880263        3.43893324911591        2.23618558716899
H           -2.76123799829968        4.74272335943735        1.25490538431802
H           -3.29495086631338        4.89341346553894       -0.42768459011458
H           -4.41351418726462        5.21800960454081        0.88930120154206
H           -0.55093601234204        2.94358778016516        2.41893064569161
