72
 energy: 71.779944593586 xtb: 6.6.1 (8d0f1dd)
N           -1.05915331733801        3.23575185380189        0.78551642152605
C           -2.16190013536158        2.72198832855728        0.87526492533422
C           -3.33765585399153        2.42730421495989        0.30891779424406
C           -3.69873045233712        0.99221846735688        0.15733150973279
C           -4.77044114002374        0.52746347597929       -0.60858675311121
C           -5.11176030556922       -0.81297936400699       -0.62133331432101
O           -6.14345550215590       -1.35369555758161       -1.33790271496861
C           -6.93459848968851       -0.50052420257865       -2.11825008518589
C           -4.36940483539804       -1.73699455163463        0.14713268945454
O           -4.78992711690045       -3.03936698821991        0.09038400087149
C           -4.15237941260994       -3.98350671691505        0.91607474531136
C           -3.30996377322448       -1.28013103426288        0.90892114647078
C           -2.98799059266453        0.06906257995335        0.90715433018860
C           -3.10277790873272        3.01511735711739       -1.64563244227695
C           -2.40738004282359        2.05299990247770       -2.26045088765354
C            0.29236376713915        0.50659746765427       -0.60477953530780
N            0.96929533738141       -0.56826564273830       -0.09831315559282
C            2.35053810081261       -0.51257218591730        0.20854818300614
C            3.24790151250242       -0.98791248882283       -0.94928279415533
C            4.68596314597718       -0.79081998408453       -0.58216616098476
C            5.32164970553561        0.40979561880726       -0.85046344559831
C            6.65504649283751        0.60258834393007       -0.52107170219352
C            7.38312880070599       -0.39910476066089        0.09453926310027
O            8.70212513479717       -0.32471975439356        0.45483460449916
C            9.40086332938590        0.86724854698530        0.20190054640929
C            6.74187862281869       -1.62847286785994        0.37003157907974
O            7.54151651746562       -2.56464405924344        0.95430284250870
C            7.00817930584285       -3.83078432948019        1.24041232037241
C            5.41271918484024       -1.80400276657989        0.03449472323156
C            0.28482820979022       -1.80930119430913        0.04923893466503
C           -4.48271737309222        3.27916997458583        0.79470870414980
C           -4.71899041794419        2.85518766890994        2.24533696344249
C           -4.22999050983341        4.77846749710990        0.69697929792688
H           -5.31728414491940        1.22280735437385       -1.21800511690735
H           -7.43206622819390        0.25576242529613       -1.50218027503491
H           -7.68576000099535       -1.14392592155037       -2.57398153354958
H           -6.35308145468465       -0.00561492869971       -2.90441075231538
H           -4.22249200557464       -3.71760712662095        1.97738146197076
H           -4.67512290125434       -4.92354941151453        0.74532797485703
H           -3.09799932047132       -4.10920220699293        0.65112629233295
H           -2.75130784228633       -1.96373670158894        1.53408797576494
H           -2.17070219358915        0.42306547623432        1.51650080995988
H           -4.15336755339889        3.06290644147458       -1.78418050482738
H           -2.57019789876684        3.90563873510398       -1.36848347389637
H           -2.84166790300675        1.14974812841957       -2.63180778092330
H           -1.36541984667088        2.15481030376330       -2.43686193432855
H           -0.76780495059409        0.45244418882191       -0.65044399948384
H            0.83908423822050        1.41675754289149       -0.71913749195305
H            2.53343375988248       -1.14309205337841        1.08861121920761
H            2.63026246099847        0.51121021122646        0.45865608191234
H            3.03141313758269       -0.44190611560168       -1.86782450244526
H            3.03203809837785       -2.03911248142671       -1.12738292061423
H            4.79077842695908        1.21144877763676       -1.34405633471573
H            7.12315090549366        1.54472906695411       -0.75780284837621
H            8.96412655884929        1.72147890804438        0.73224736099160
H            9.44464885787614        1.08967718117844       -0.86969600360310
H           10.40886914740831        0.69091595732896        0.57516743719274
H            7.82669279073659       -4.38810276762876        1.69530419613621
H            6.17345076782871       -3.77388160629464        1.94735020012622
H            6.68188492208494       -4.34630400884309        0.33085218552912
H            4.92021174957020       -2.74344692140492        0.22557254599953
H            0.77695474599326       -2.56633796258266       -0.56488731692224
H           -0.74619585500162       -1.74828938644663       -0.26499413376991
H            0.32698622792775       -2.09739030716836        1.10673489886420
H           -5.35420504082980        3.01899609724656        0.19719622794092
H           -3.85581791940539        3.12971861503882        2.84901993519494
H           -4.84763593583652        1.77524710825014        2.31110019717955
H           -5.59629513829794        3.34142392593677        2.64451908099486
H           -3.29809797571738        5.05936604845344        1.18345545585770
H           -4.19502663403635        5.13115375785187       -0.33183217022173
H           -5.05341550749817        5.27204119834433        1.20821763797985
H           -0.36975909748129        3.22983906943610        1.52665795717676
