72
 energy: 53.689000940360 xtb: 6.6.1 (8d0f1dd)
N           -1.36724632842654        3.21241720000823        1.65303040105636
C           -1.76478842685047        2.34063165990748        0.85644138221921
C           -3.04034965197958        2.25053819459476        0.15909868705581
C           -3.50692796305913        0.80562277772744        0.24145333011581
C           -4.52337230094672        0.37257674790216       -0.60045577895146
C           -4.97925469026507       -0.92975742909057       -0.57427880690772
O           -5.97246910943626       -1.43536222764829       -1.36158885977854
C           -6.63895977042044       -0.55405343421853       -2.22433108261279
C           -4.39420651582892       -1.85365635588915        0.31391219085869
O           -4.90407257933161       -3.12091036192173        0.26173461452109
C           -4.42976504533791       -4.05843635631281        1.19564398988301
C           -3.38526212037269       -1.42301933403774        1.15438348894225
C           -2.95620035431662       -0.10224989256537        1.12424992611311
C           -2.58797709814342        2.58660481440132       -1.27958637802337
C           -1.62282109478955        1.49985715801485       -1.84721882786477
C           -0.18858160288566        0.91246572549306       -0.74897003145496
N            0.62287751782061       -0.27370671778252       -0.42072450942441
C            2.06112381440245       -0.25982596028982       -0.04526482649271
C            3.05638165247966       -0.74061674114181       -1.14528574509097
C            4.49977984307599       -0.59153834474111       -0.73595245568884
C            5.19065355215474        0.58584975007066       -0.97188445023198
C            6.51061405840476        0.73889590268836       -0.56900491345354
C            7.17233161329846       -0.29190217429467        0.07410510195134
O            8.46622282240116       -0.25673829115040        0.51049923968294
C            9.21743424424296        0.90559006590637        0.27105391361155
C            6.48343708267794       -1.50024118870768        0.31449017103030
O            7.21290583738188       -2.46212348647814        0.95187314607144
C            6.62306680715055       -3.71164110980086        1.19418417629406
C            5.16769287564462       -1.63086719781096       -0.09251874268520
C            0.05565484115534       -1.58012704690668       -0.34200760446443
C           -4.16143285225551        3.17295449014615        0.65021158554417
C           -4.60189143834287        2.80853783615157        2.06759938926579
C           -3.77440203099389        4.64453839945054        0.59999396240051
H           -4.95159067086770        1.07909806037197       -1.29112025498993
H           -7.11025661141570        0.26802456411130       -1.67372241864990
H           -7.40773424130422       -1.15011123992263       -2.71323574021039
H           -5.96610945932690       -0.13948161880246       -2.98281874662678
H           -4.58434257860395       -3.72131307556846        2.22713625541862
H           -5.00320614744066       -4.96769538127525        1.02225932857288
H           -3.36675641939303       -4.27452689072187        1.05053713656477
H           -2.92172538175439       -2.10912637555309        1.85029885634640
H           -2.16967704884530        0.20753290009876        1.79423349676435
H           -3.47638767703579        2.67332766289653       -1.92168007521161
H           -2.06137294483456        3.54169503004024       -1.25489319700101
H           -2.21943530141894        0.63722100056808       -2.07911842185095
H           -1.17525403481737        1.87519968370686       -2.75778147929492
H           -0.91593453156632        1.31701677448638        0.12650792232554
H            0.61244701043563        1.66107143613685       -0.98908301582418
H            2.22575526854156       -0.89988744342401        0.85007119702860
H            2.37890939639101        0.74185349657674        0.24583468401806
H            2.88523642769821       -0.16205407531768       -2.05166561541660
H            2.84213105788394       -1.78704276580173       -1.36113377192233
H            4.70107479846414        1.40555714513701       -1.47600095551744
H            7.01768535493598        1.67135458275021       -0.76298409469936
H            8.78782221280607        1.77593096386821        0.77700156345425
H            9.30953749333201        1.11949204236088       -0.80032525125254
H           10.20494223068203        0.71104346578086        0.68444720318659
H            7.39190232181449       -4.31667594237131        1.67760295560194
H            5.76195524537501       -3.62526556703255        1.86336821593994
H            6.31567522601536       -4.20043211565857        0.26373499244594
H            4.63588005281845       -2.55201144109766        0.08575664606692
H            0.17891150368180       -2.17051684206142       -1.26239329627796
H           -0.99546938691926       -1.53907751853593       -0.10814983578023
H            0.53526546659057       -2.14416607573625        0.46249402885631
H           -4.98809468908760        3.00051111376988       -0.04370510587033
H           -3.79355625646980        3.01488808219960        2.76804655776276
H           -4.88356517085468        1.75874718195295        2.13514953034455
H           -5.45745196342485        3.41746014197076        2.34641524494757
H           -2.91639292009011        4.82277980055598        1.23494636322709
H           -3.55086183704196        4.96982168039157       -0.41208688388366
H           -4.60335385966711        5.24041652119462        0.97105659466774
H           -0.46915975613933        3.08281183909952        2.11270927794001
