72
 energy: 1.327073776617 xtb: 6.6.1 (8d0f1dd)
N           -1.47480661274256        3.00822604284868        2.04654843312333
C           -1.65647315869364        2.23887538755818        1.06282004942170
C           -2.86586258405390        2.13993543184227        0.21736997041558
C           -3.38804442997325        0.71124393489564        0.29601587979309
C           -4.38540222213282        0.29572249783951       -0.58511155259997
C           -4.89814754029953       -0.98582261851235       -0.54647203921906
O           -5.87633826842693       -1.46973804825841       -1.36382163849116
C           -6.48739920516376       -0.58719527627859       -2.26788222833302
C           -4.39828512212334       -1.90803659122598        0.39675154316574
O           -4.95992467011306       -3.15085255639471        0.35331311114719
C           -4.57630768855822       -4.08602187846264        1.32828798574503
C           -3.41132234141848       -1.49593547296454        1.27111923902637
C           -2.91693292155695       -0.19786556996575        1.22412755546525
C           -2.32756111302029        2.41084564869674       -1.21044166275100
C           -1.35543716289417        1.30601676003236       -1.73367591395021
C           -0.06754193955449        1.06591632884798       -0.92254870231098
N            0.61483029261938       -0.11763921549010       -0.51216308892467
C            2.01415227186438       -0.11393307141294       -0.12687431919276
C            2.97916286377159       -0.61427601946681       -1.23334425017044
C            4.41255442588948       -0.49293182381285       -0.80439394792715
C            5.12019063888559        0.67627826147449       -1.01892726964742
C            6.43356128819282        0.80422977165872       -0.58992224582715
C            7.06311740929670       -0.23930642891484        0.06444491280611
O            8.34690981359589       -0.22709142893689        0.52275172098970
C            9.12464917888313        0.92115849458815        0.30130650727653
C            6.35062395045870       -1.43725981466030        0.29291529280526
O            7.05023921135775       -2.41176826434387        0.94107470552046
C            6.43175922039017       -3.65061884852740        1.16881503500171
C            5.04222298055347       -1.54461973051630       -0.13995967292955
C           -0.01930315206666       -1.40445197588125       -0.52424178435072
C           -3.98688845206829        3.11617861847027        0.60225771458464
C           -4.53935990399687        2.78744168240929        1.98724702874838
C           -3.53842796395735        4.57349654735037        0.56586606931571
H           -4.76762475835333        0.99703792926702       -1.30836585811147
H           -6.94704611751099        0.26353437411322       -1.75298138822746
H           -7.26205934829300       -1.16904355623672       -2.76498147559812
H           -5.77869274728441       -0.21713461448564       -3.01653549314054
H           -4.77144173349978       -3.71866140758207        2.34169524715348
H           -5.18330017868444       -4.97022679826449        1.14078577012301
H           -3.51789716560161       -4.35282322050037        1.24146665909902
H           -3.01279556158529       -2.17796420821175        2.00723530968917
H           -2.15486000555244        0.09178202920312        1.93058652162745
H           -3.18229621997281        2.49997007955678       -1.88592733655049
H           -1.79922268628461        3.36315374742068       -1.20713904143523
H           -1.92938623527195        0.38208523300788       -1.80817829418572
H           -1.10359709833011        1.56105291543392       -2.77002469240406
H           -0.93474544442243        1.52574670106404        0.59783206243939
H            0.67244157985842        1.87517394596535       -1.03647169369279
H            2.16712399884030       -0.74737466530417        0.76172018353499
H            2.31974964117410        0.89529505087905        0.15361252771987
H            2.80882310073209       -0.01620183654760       -2.12666596073101
H            2.74246847175794       -1.65455204286177       -1.46106941631009
H            4.65191788714935        1.50284824584855       -1.53166320184661
H            6.95946365001773        1.72715140584580       -0.77643159010266
H            8.70201514675445        1.79899983708165        0.80072653821442
H            9.24165026451470        1.13372187114188       -0.76744716158742
H           10.09947606919249        0.70227151223229        0.73286500160265
H            7.18087561847241       -4.26871781729467        1.66401278017592
H            5.55961441678290       -3.55088169655005        1.82269614680725
H            6.13229804797874       -4.13173553260064        0.23161832008644
H            4.49058388694013       -2.45672803452187        0.02678819909053
H           -0.07585141060399       -1.83877709875396       -1.52958188487799
H           -1.02936286459923       -1.35471991446130       -0.11577028915469
H            0.55247765908921       -2.09442290925072        0.09566446545007
H           -4.77998591296221        2.97806104558423       -0.13755733507857
H           -3.76596912668376        2.94778423826136        2.73328631219805
H           -4.88107908958443        1.75562350001600        2.03744759209686
H           -5.37685741417660        3.44299872825343        2.20839853665577
H           -2.72092934520035        4.72661047596166        1.25927564724368
H           -3.23034693189100        4.87379972742473       -0.43117857540580
H           -4.36548214458691        5.20989354916016        0.86819524135029
H           -0.56336900409183        2.89735721589481        2.49806072995473
