72
 energy: 92.638002225311 xtb: 6.6.1 (8d0f1dd)
N           -1.16523140477343        3.45112929124799        1.04374502280507
C           -2.02176762230116        2.58383941201322        0.83503926889522
C           -3.24070587531359        2.38761638127206        0.13825531842777
C           -3.63330274503252        0.91736181623503        0.17294188342327
C           -4.67753182389769        0.46026530154703       -0.61693841728300
C           -5.06715111737256       -0.86391321214499       -0.60857118189215
O           -6.08215054334918       -1.38513004217097       -1.34892338826974
C           -6.81873482506694       -0.51706115821758       -2.16465629459220
C           -4.38640426117429       -1.78567246124377        0.21148853112501
O           -4.83767529893315       -3.07331132751863        0.16153050116659
C           -4.26213757754325       -4.01615030473059        1.03009703131627
C           -3.34676353844231       -1.33593058691299        1.00398220275507
C           -2.98143736670081        0.00519457123829        0.98528387285553
C           -2.95358095827668        2.84135035743681       -1.39435010927307
C           -2.13128303877436        1.89059923823360       -2.09253474165546
C            0.10646447581914        0.61027915188332       -0.62078061873318
N            0.83167065289131       -0.48213020802261       -0.23441122327319
C            2.23138175265017       -0.42952239042444        0.10923100335541
C            3.16691069039549       -0.89353614874084       -1.02421170549240
C            4.60932338188912       -0.70852706517744       -0.63597865571916
C            5.26848548932864        0.48046583151801       -0.89835697939253
C            6.59887703295642        0.65812004495900       -0.54298732978754
C            7.29967707848016       -0.35663298812512        0.08252293922107
O            8.60622304457808       -0.29754702818213        0.47726024944226
C            9.32659282338012        0.88258309644157        0.22926943678958
C            6.63944940112699       -1.57837419035803        0.34496934430741
O            7.40919159078856       -2.52391190879643        0.95542612410989
C            6.85315452354136       -3.78481620785130        1.22373665761732
C            5.31341946365500       -1.73512029271634       -0.01535922921758
C            0.18372696370846       -1.73895005504731       -0.10196141509985
C           -4.35672020339878        3.23981466684210        0.73548660839453
C           -4.65766140714852        2.83589546927462        2.17758523942333
C           -4.05018456614338        4.72650061139001        0.65682954155250
H           -5.17413158522668        1.16646924444907       -1.25506508533445
H           -7.30614506056989        0.26691839824554       -1.57544220004010
H           -7.57786844079989       -1.13928524033285       -2.63476867884883
H           -6.19664142944660       -0.05654646309006       -2.93910231376883
H           -4.36668383081073       -3.72252112928911        2.08019330677499
H           -4.80267121601391       -4.94585267712612        0.86139484527906
H           -3.20336424291540       -4.17688454304269        0.81019187742298
H           -2.82175446310116       -2.01962201264791        1.65964714262462
H           -2.17414464081631        0.33784418762306        1.62132445488047
H           -3.92017350836063        2.91574167414741       -1.86680990819721
H           -2.39550912804793        3.76423868674540       -1.33061526272219
H           -2.53863029113334        0.96832892132965       -2.45715590488565
H           -1.23340141451205        2.22505702960721       -2.58409867914921
H           -0.89474846389641        0.68175962071614       -0.26322316613839
H            0.65944273436009        1.50670627663063       -0.78467930576045
H            2.38325907721349       -1.07050829303373        0.99928184922126
H            2.51926365303780        0.59149812803194        0.37815914974178
H            2.97798831192471       -0.33559346782814       -1.94533727889024
H            2.95693550139165       -1.94196239660842       -1.22230246328464
H            4.75530598506586        1.28829989927345       -1.39900391092977
H            7.08239004391156        1.59675965272092       -0.76227345536563
H            8.89191060501799        1.74376246106557        0.74819910524460
H            9.39011778683991        1.09902060659917       -0.84232735791997
H           10.32719551537120        0.70441503708487        0.61820407856145
H            7.65133703951135       -4.36271594708639        1.69111551021238
H            6.00718706488469       -3.71724845020922        1.91548421257558
H            6.53482086804446       -4.28950362710240        0.30540087412358
H            4.80577078407482       -2.66821970535954        0.16956832870378
H            0.53865861699255       -2.44531180342882       -0.85992666934088
H           -0.89083306930278       -1.71088869962230       -0.21687581872476
H            0.43987288652402       -2.11138332625442        0.88788686843272
H           -5.21638313735759        3.01267587188728        0.10639536399544
H           -3.81869607597677        3.09121113786467        2.82350096214400
H           -4.85218303924962        1.76687818088295        2.24607128494174
H           -5.53385070980089        3.37038039567638        2.52508529521807
H           -3.14536058708619        4.96751610378981        1.20766238607417
H           -3.93579047444373        5.07101881364697       -0.36714659970744
H           -4.88310357036815        5.25921942720859        1.10444158151547
H           -0.36945463308906        3.25917038268306        1.67072139475589
