72
 energy: 77.190700432283 xtb: 6.6.1 (8d0f1dd)
N           -1.31023875243924        3.31341217201466        1.47044209657696
C           -1.82664356623902        2.41341784958239        0.79980905378980
C           -3.11028811931406        2.29464468924186        0.13763537929993
C           -3.55052985750545        0.84295237062970        0.21821473149337
C           -4.57673636063896        0.40308410869388       -0.60576945029989
C           -5.01020146314263       -0.90690883940523       -0.58548636043672
O           -6.01083333285909       -1.41966247545468       -1.35851538689471
C           -6.70034087558907       -0.54157511040371       -2.20582247372130
C           -4.39127383744847       -1.83103750561087        0.27937660392155
O           -4.88163455563488       -3.10689662861820        0.22518628388671
C           -4.37269431434599       -4.04540685694728        1.14063714399476
C           -3.37297701558189       -1.39369754516515        1.10529635222604
C           -2.96819603607849       -0.06495928143817        1.08083690063621
C           -2.71703415030945        2.66780592854991       -1.31640533231193
C           -1.79746166221566        1.62781902321297       -1.93215412629272
C           -0.11980656672132        0.79295748917385       -0.67252258204132
N            0.66938330725409       -0.33496469915634       -0.34159533702602
C            2.10844103651022       -0.31844391813112        0.00620374663205
C            3.09201789516697       -0.79298221361482       -1.10519382308875
C            4.53717945525933       -0.63228323648035       -0.70529523214822
C            5.21823955364478        0.54934197859334       -0.94964484361114
C            6.54127947182806        0.71182687937782       -0.56026510227512
C            7.21627885804275       -0.31364357721182        0.07768127054267
O            8.51442280636100       -0.26958881216142        0.50299328923646
C            9.25511572076268        0.89835310605257        0.25803068700978
C            6.53715761214764       -1.52609867490924        0.32476206055035
O            7.27907943518855       -2.48270449492638        0.95573353469940
C            6.70043699862957       -3.73606860703884        1.20499351901517
C            5.21818789592779       -1.66622099806918       -0.06900647778269
C            0.09493471306306       -1.63993876841085       -0.25533430081734
C           -4.22875971812782        3.19482245638706        0.67492893137103
C           -4.62495515113513        2.81597365969872        2.10221409344149
C           -3.86800804708297        4.67221407463474        0.61665124481355
H           -5.02495706869039        1.11093088470649       -1.28118407372634
H           -7.17705254109607        0.26856019734425       -1.64213527875471
H           -7.46624786027110       -1.14564011429868       -2.68932101345896
H           -6.04381846731764       -0.11056337653109       -2.96940755834607
H           -4.51055894975486       -3.72137910650208        2.17896317783895
H           -4.93388403581818       -4.96313254825868        0.97117496190303
H           -3.30952214956107       -4.24248401944196        0.97180900638946
H           -2.88594291434269       -2.08065202783252        1.78556261830134
H           -2.17316414121582        0.25113490123247        1.73816154806490
H           -3.63084706679034        2.75123011185679       -1.91198862328913
H           -2.17580046330450        3.61413702785330       -1.28477019668985
H           -2.32640713023856        0.74373273168690       -2.21549006415573
H           -1.14833899019838        2.00077243245667       -2.69886157123708
H           -0.88638262413644        1.12694124151181        0.04197702059015
H            0.60393071355638        1.59056615537259       -0.92688158335407
H            2.25441266665274       -0.96519357863217        0.89915405472471
H            2.42632358313972        0.68987189178941        0.28751723670565
H            2.91555598440667       -0.22049517978097       -2.01606765722706
H            2.88213683213486       -1.84031371175244       -1.31831586677400
H            4.71971815406061        1.36524477298280       -1.45162646522995
H            7.04079844919884        1.64696078141708       -0.76085194675273
H            8.82323686837940        1.76584820349587        0.76721587852809
H            9.33752521053255        1.11285344335238       -0.81393888854337
H           10.24735555176244        0.71151422494456        0.66373190872937
H            7.47804163366826       -4.33391371750256        1.68352921729233
H            5.84394435555948       -3.65551579662353        1.88091327477238
H            6.38965503993755       -4.22926362989246        0.27797238812986
H            4.69415593532972       -2.59100328678057        0.11276499733063
H            0.28965632285028       -2.26844726808972       -1.13119408163939
H           -0.97658025893850       -1.60206116826581       -0.14340001986254
H            0.51999703635262       -2.16413747125871        0.60820387925041
H           -5.06796166946351        3.00717085921298        0.00096665494391
H           -3.80786115159120        3.03662113692098        2.78713581878212
H           -4.87963622771495        1.75957426991298        2.17382538800437
H           -5.48667436710337        3.40415432451042        2.40489655076275
H           -2.99406317580939        4.86707577973437        1.22552416430779
H           -3.68018847599993        5.00535507824449       -0.40050517174666
H           -4.69775918599356        5.25001688455276        1.01370595713462
H           -0.44223701840422        3.16867111106016        1.96903549412341
