72
 energy: 41.998696074666 xtb: 6.6.1 (8d0f1dd)
N           -1.40436578409419        3.14322803836867        1.74320055022738
C           -1.72378198734139        2.30765296737169        0.87159646290486
C           -3.00709920430483        2.22768415605238        0.17022238733807
C           -3.48416940563828        0.78708647863600        0.25280742146769
C           -4.49655683759005        0.35764888732713       -0.59736543482066
C           -4.96394607412146       -0.94063240805614       -0.56881806980812
O           -5.95361368522114       -1.44256840825596       -1.36271872339688
C           -6.60908460604163       -0.56087382512320       -2.23405917669195
C           -4.39593487882232       -1.86427790534724        0.33086991410444
O           -4.91568174752064       -3.12707891566981        0.27965578930575
C           -4.45886036690406       -4.06385636263635        1.22248065097473
C           -3.39142074731989       -1.43732379203021        1.17837038240955
C           -2.94943322475827       -0.12077577892630        1.14542981890717
C           -2.53144206305460        2.55006861053220       -1.26303473124317
C           -1.55128014421727        1.45074528798588       -1.80866680927050
C           -0.17223620398088        0.94442641174063       -0.81477251626795
N            0.62456502280934       -0.25460717107363       -0.44696755380056
C            2.04944364298054       -0.23386523466176       -0.06508098995455
C            3.04235624497830       -0.71634623697590       -1.16527808425352
C            4.48349240285384       -0.57216205161846       -0.75151370493827
C            5.17801087244123        0.60376858417576       -0.98252623766721
C            6.49627616998885        0.75201312060395       -0.57299545441378
C            7.15136778173194       -0.28145707781364        0.07262062925681
O            8.44305583395134       -0.25057255708701        0.51434165750922
C            9.19925015720051        0.90911003762696        0.27775633525013
C            6.45768500808759       -1.48767738123289        0.31018293031992
O            7.18074174452139       -2.45219497971393        0.95050124953293
C            6.58498574401403       -3.69958153329809        1.18933442081452
C            5.14370789953953       -1.61371290390226       -0.10317144004012
C            0.03835182759664       -1.55143007978037       -0.37917330939459
C           -4.12567610141076        3.16138730752106        0.64056520062971
C           -4.58955051876673        2.80471456669440        2.05196603362667
C           -3.72740350731462        4.63074684872718        0.59348094402359
H           -4.91530899692902        1.06365410817931       -1.29467932039909
H           -7.07844280718322        0.26706999166202       -1.69078961138850
H           -7.37879877083077       -1.15404049864374       -2.72509585920806
H           -5.92862143006588       -0.15492405658079       -2.99034325689753
H           -4.62178050714380       -3.72012524612799        2.25036080304165
H           -5.03854826118082       -4.96865723943857        1.04696844429089
H           -3.39618886317854       -4.28947222488055        1.08913630789289
H           -2.93963952446914       -2.12335321229563        1.88156792635902
H           -2.16715854548650        0.18439098293016        1.82221400665289
H           -3.41016169034301        2.63771492592636       -1.91723717444992
H           -2.00749656864305        3.50659778404523       -1.24297808284308
H           -2.15597082098200        0.58421706710739       -2.02913574749131
H           -1.17986545638496        1.81897579915309       -2.76679482088742
H           -0.99685169651098        1.45177019306792        0.21960175320657
H            0.63964857146364        1.68764272187321       -1.03726051826280
H            2.21965980401026       -0.87179900955721        0.82779449843590
H            2.36304341267203        0.77108541302507        0.22392366402727
H            2.87021452042608       -0.13332215760214       -2.06801767608331
H            2.82416666276748       -1.76181998312694       -1.38360109402537
H            4.69268843628697        1.42493796347978       -1.48813602362479
H            7.00712529553982        1.68291112068332       -0.76415102596900
H            8.77057835713275        1.78086315621353        0.78203780646766
H            9.29598793245670        1.12260895674850       -0.79329216175610
H           10.18446483311494        0.71070678951127        0.69476267346374
H            7.34941508315471       -4.30803292597121        1.67516389807513
H            5.72158480441834       -3.61033478169225        1.85523069720700
H            6.27927377976463       -4.18640741681486        0.25728971828847
H            4.60782194944179       -2.53296454475387        0.07305906021811
H            0.12597638085535       -2.11235849005692       -1.32080948777960
H           -1.00706323154465       -1.50650523903113       -0.10428257172337
H            0.54038710632071       -2.13987170367645        0.39098688886020
H           -4.94658014203403        2.99729802709837       -0.06290407752191
H           -3.78716108924625        3.00159876036715        2.76082680234772
H           -4.88400578908142        1.75853321446908        2.11658030735889
H           -5.44146823699929        3.42392000819304        2.31902616201197
H           -2.87775332523667        4.80214317368328        1.24059232743476
H           -3.48723707920678        4.95144967863829       -0.41599729244095
H           -4.55626221791622        5.23518453092075        0.95102262578507
H           -0.49072615120358        3.04935016341127        2.18648016780981
