72
 energy: 17.568707332931 xtb: 6.6.1 (8d0f1dd)
N           -1.45050539770183        3.11691035826942        1.88986354550432
C           -1.69161249841048        2.29686590682844        0.96300421747798
C           -2.94115942458520        2.18847573972437        0.19416146896458
C           -3.43538880474525        0.75149832366592        0.27673179663575
C           -4.44028040619950        0.32814442980844       -0.58953518658879
C           -4.93059299080337       -0.96199249584919       -0.55686160266798
O           -5.91378771251408       -1.45611459011114       -1.36350173901865
C           -6.54722880240705       -0.57387035577767       -2.25144702669489
C           -4.39713478698834       -1.88531167383647        0.36504165254241
O           -4.93776320064580       -3.13870086199907        0.31611537087871
C           -4.51775704098642       -4.07490399884148        1.27545584716103
C           -3.40167117689049       -1.46550930551951        1.22636745098146
C           -2.93330157741615       -0.15758550696153        1.18734905292102
C           -2.42822924585364        2.48201368564531       -1.23517915910331
C           -1.44350274101702        1.37800210098730       -1.75709172178525
C           -0.12207371821096        1.00693129324455       -0.89043728057681
N            0.61246180433433       -0.18295519746341       -0.47573449238951
C            2.02857215112739       -0.17353657905751       -0.09938331053735
C            3.01058213272993       -0.66496552500102       -1.20176968680952
C            4.44892691890584       -0.53260774469902       -0.78168164306562
C            5.15046448843511        0.64006333400166       -1.00325338446186
C            6.46568214695308        0.77844815702971       -0.58176485418898
C            7.10771964060425       -0.26022904420439        0.06857899528251
O            8.39501701491498       -0.23859377056880        0.51974327543692
C            9.16200616209681        0.91547606887536        0.29053500053372
C            6.40458163247768       -1.46226790644140        0.30068272243991
O            7.11522256336801       -2.43174295219509        0.94624321550657
C            6.50817073590041       -3.67498592498456        1.17877201716288
C            5.09386247282140       -1.57897397869555       -0.12456442128273
C            0.00698237436620       -1.47864028657928       -0.45293900361293
C           -4.06031613360088        3.14006185970356        0.61973980129535
C           -4.56604556404937        2.79661672347107        2.01933738155438
C           -3.63456986718474        4.60284058701584        0.57938408733774
H           -4.84039539627326        1.03148168171994       -1.30104848212118
H           -7.01197408636223        0.26563328819060       -1.72241535793961
H           -7.31922437025980       -1.16117956999457       -2.74620893871327
H           -5.85209537764299       -0.18541566562302       -3.00349820467983
H           -4.69705276825427       -3.71897658883405        2.29615138007710
H           -5.11094924601526       -4.96968053648669        1.09412156368505
H           -3.45666874601669       -4.32090121632995        1.16578916611323
H           -2.97548788667991       -2.15073750783320        1.94520058491256
H           -2.15944919154730        0.13880648537492        1.87779865232645
H           -3.29346368140299        2.56994270945205       -1.90169972906705
H           -1.90388505994310        3.43713207497134       -1.22362723833725
H           -2.04028118101286        0.48320241704760       -1.91889392901450
H           -1.14746907394656        1.68624953598283       -2.76838120877933
H           -0.99948672045681        1.56226730836243        0.40967596341607
H            0.67143496528690        1.77452930106069       -1.06885867632506
H            2.19418525226905       -0.80988623075907        0.79002492177065
H            2.33860621974084        0.83276585271031        0.18646811193207
H            2.83853297070902       -0.07404136430927       -2.09856753367268
H            2.78454010111440       -1.70835608724458       -1.42496149224144
H            4.67337349499224        1.46435201340866       -1.51125140350114
H            6.98398451981617        1.70591996999742       -0.76862139865200
H            8.73585418484917        1.79009005785177        0.79206340185396
H            9.26889178561636        1.12863836899986       -0.77950664428142
H           10.14206559376868        0.70756064990941        0.71513029540654
H            7.26428116978672       -4.28931401435837        1.66944442049970
H            5.64019174692188       -3.58027494477552        1.83815660426920
H            6.20585286657005       -4.15829875021953        0.24376937025881
H            4.54993254698883       -2.49436651039798        0.04786210741832
H            0.02516731072602       -1.97920738462246       -1.43079749781499
H           -1.02387372331900       -1.43283218776297       -0.11145445589830
H            0.54742720853755       -2.11995705633480        0.24397938319646
H           -4.86687750453394        2.98977355608661       -0.10226755617496
H           -3.77654181341824        2.97539529946855        2.74602398223110
H           -4.88385918652620        1.75724927478960        2.07759601166326
H           -5.41042525350318        3.43463964617714        2.26402926688787
H           -2.80084877371524        4.76078299276431        1.25026888603287
H           -3.35929196538223        4.91283911069764       -0.42401329138767
H           -4.46131184715151        5.22476968855386        0.91010754731342
H           -0.53602869732071        2.98956166127584        2.33849485336766
