72
 energy: 80.010256495323 xtb: 6.6.1 (8d0f1dd)
N           -1.09015594941869        3.32400796253504        0.79702761541269
C           -2.13622998368456        2.68774500447313        0.90397595703207
C           -3.30781489360347        2.42970112352106        0.23774048023029
C           -3.68481769629456        0.97610893612359        0.15593096863045
C           -4.74561818571817        0.51197753657961       -0.61757035459602
C           -5.10231344661193       -0.82421197984082       -0.62354818822587
O           -6.13281005544018       -1.36015012862660       -1.33584395838669
C           -6.90686936565272       -0.50354932018517       -2.12959771239148
C           -4.37741899901823       -1.74682143149378        0.16190288544521
O           -4.80129128861308       -3.04606110307069        0.10874585227552
C           -4.18027825993960       -3.99157321473826        0.94404640736651
C           -3.32506473713569       -1.29157969401346        0.93224990365227
C           -2.99121905937150        0.05570891466958        0.92411550274624
C           -3.07936498970285        2.96318809957506       -1.54272113957770
C           -2.34805292612419        2.02544035150989       -2.22122704186328
C            0.25741071386497        0.52757637793601       -0.62476660689467
N            0.94168663531129       -0.54484236756616       -0.13756177742945
C            2.32406988717198       -0.49159690636629        0.18377543151706
C            3.22515044308582       -0.96442793546263       -0.96524027423655
C            4.66437510886934       -0.76723288557999       -0.58875702395949
C            5.30615342817621        0.42867393064091       -0.86002271853721
C            6.63986143457437        0.61751564921590       -0.52658638569096
C            7.36094136387725       -0.38816237687805        0.08963035701436
O            8.67654063924418       -0.32034821158045        0.45345760505112
C            9.38194879536968        0.86995265075445        0.20768515018213
C            6.71516148305581       -1.61590759475648        0.36302609627790
O            7.50838724335617       -2.55421061421519        0.95209551793140
C            6.96953693287410       -3.81932964133754        1.23507341798374
C            5.38624861238674       -1.78583552462255        0.02381256751127
C            0.26165340233546       -1.78692129553085        0.01664108033881
C           -4.44921105018295        3.26755489623084        0.77837135014002
C           -4.69905788450528        2.85064457216749        2.22885339821491
C           -4.18542906425136        4.76457903597755        0.68664402063977
H           -5.28244576272944        1.21034824613223       -1.22959282638688
H           -7.40175044418948        0.25983691856242       -1.52061790554925
H           -7.65941470374114       -1.14199206341300       -2.58907244893861
H           -6.31360944734433       -0.01803933556721       -2.91242351634333
H           -4.25902955179260       -3.72070527590334        2.00296905046441
H           -4.70819908555808       -4.92862441335274        0.77280120531264
H           -3.12523659661869       -4.12612980597652        0.68944713035531
H           -2.77151326036740       -1.97637207371726        1.56375674834301
H           -2.17350982885475        0.40140086505122        1.53863169724921
H           -4.10625209350234        3.02616955187536       -1.80591260598154
H           -2.53102576871648        3.87117774442080       -1.36271529115968
H           -2.76139426180500        1.11380931821076       -2.58709612229361
H           -1.33505092085136        2.19292779903133       -2.49128565151909
H           -0.79917079564134        0.49399073735551       -0.54649978741678
H            0.79586075766108        1.43875557591264       -0.73879312000777
H            2.49550755132423       -1.12623653839452        1.06644854033602
H            2.60228978645840        0.53032361098275        0.44068469023693
H            3.01970937413483       -0.41751060875543       -1.88839876934863
H            3.01219614160308       -2.01424763461941       -1.14818739774744
H            4.78112750906445        1.23209858195942       -1.35645332992542
H            7.11223902460770        1.55812704953670       -0.75954150081300
H            8.94629190045564        1.72555807344180        0.73642316425867
H            9.43167850294763        1.09224007341248       -0.86330999270749
H           10.38794398705114        0.69259307793732        0.58493987936125
H            7.78347018122127       -4.38129432693585        1.69295596605368
H            6.13241482814956       -3.76006829465977        1.93897056209235
H            6.64493766892750       -4.33263015603250        0.32372653586972
H            4.89063745498087       -2.72447340487394        0.21150713155486
H            0.72591275174444       -2.53290948083400       -0.63331796268671
H           -0.78173091554090       -1.74727243811134       -0.25168174824829
H            0.35910787473355       -2.07507234606922        1.06546086486344
H           -5.31941188499163        3.01392919736073        0.17458763876984
H           -3.84536570266534        3.12896119016735        2.84166117626417
H           -4.83871302476708        1.77435865575230        2.30055580011349
H           -5.58001384683296        3.34702380603466        2.61187780206631
H           -3.26042847224162        5.03741179570019        1.18994413859735
H           -4.12996801915170        5.11748603602584       -0.34060148056356
H           -5.01220175597173        5.26442502792582        1.18370432292432
H           -0.34079546377302        3.28717529458201        1.47862420404762
