72
 energy: 29.100558754282 xtb: 6.6.1 (8d0f1dd)
N           -1.43130906173209        3.15946794552963        1.80842860194970
C           -1.70292850684788        2.32157326575336        0.91057938924859
C           -2.97483088020392        2.21138837239000        0.18190601288363
C           -3.45855484822997        0.77098759623964        0.26524918535610
C           -4.46794345050179        0.34390336759622       -0.59287103416353
C           -4.94709337033317       -0.95044413665315       -0.56244342572149
O           -5.93343239333846       -1.44887371032381       -1.36279999587929
C           -6.57809178639037       -0.56728931819505       -2.24279134466185
C           -4.39640617426755       -1.87424951361506        0.34832508413318
O           -4.92655615785097       -3.13243849644003        0.29791656775206
C           -4.48831887504222       -4.06937423596354        1.24885324392172
C           -3.39633727055787       -1.45062655820230        1.20258604578165
C           -2.94086208741264       -0.13812899783476        1.16660760324175
C           -2.47993687728319        2.51588588596969       -1.24993967529036
C           -1.49327338623647        1.41351749401103       -1.77798743868627
C           -0.14592901914993        0.97572278442165       -0.86180791441974
N            0.61566883031165       -0.21727753488802       -0.45488737839004
C            2.03825556966361       -0.20331588520175       -0.08251692845209
C            3.02629572054537       -0.69048387904790       -1.18385990766998
C            4.46635531532370       -0.55226396120941       -0.76664350773777
C            5.16485801961829        0.62179938937573       -0.99315123973217
C            6.48157097431830        0.76504417131637       -0.57729957659979
C            7.13004071712121       -0.27105766472301        0.07081401422238
O            8.41935719944239       -0.24468085753656        0.51781302035664
C            9.18097428097646        0.91221309488904        0.28458267842597
C            6.43148380016381       -1.47517795994400        0.30537162175147
O            7.14813947165236       -2.44221815850704        0.94853279221895
C            6.54671861580966       -3.68756157778824        1.18410407139823
C            5.11912589991115       -1.59641282951047       -0.11423743592219
C            0.02172283270271       -1.51490842651001       -0.41545180660946
C           -4.09402036362675        3.15147224343654        0.62977969781928
C           -4.57762655725408        2.80104162648190        2.03584631452246
C           -3.68183063430397        4.61757181124757        0.58629499007631
H           -4.87820677376804        1.04816876286436       -1.29741566482869
H           -7.04543540918581        0.26643520194686       -1.70685539614665
H           -7.34874027163215       -1.15774707382621       -2.73580112698551
H           -5.89016818157199       -0.17007166922282       -2.99690706846784
H           -4.65956083222390       -3.71989537488694        2.27328228195594
H           -5.07482255191170       -4.96911728811138        1.07011648025139
H           -3.42634306232287       -4.30528442301257        1.12740480333096
H           -2.95721800951737       -2.13643089795609        1.91355137200615
H           -2.16290648790600        0.16251410938270        1.85024230210123
H           -3.35185834822900        2.60268228446576       -1.90961946611634
H           -1.95688758259959        3.47235579968369       -1.23546866471613
H           -2.09515759944801        0.53347724742233       -1.97514400907258
H           -1.16495204279651        1.75171671646567       -2.76743402192679
H           -1.02045133513132        1.54361117536215        0.31377979027501
H            0.66104214139142        1.72606500373150       -1.06345465619328
H            2.20640477943184       -0.84045915202197        0.80839672798939
H            2.35053861122622        0.80216018411870        0.20407716768641
H            2.85497643702399       -0.10384277045907       -2.08402065510660
H            2.80460723609770       -1.73505794412290       -1.40435673734228
H            4.68385397232213        1.44464568457269       -1.49993060404267
H            6.99624559630916        1.69425447834684       -0.76602681621957
H            8.75341472117649        1.78536788481349        0.78735348270915
H            9.28283486232111        1.12553152661562       -0.78599886333192
H           10.16363851115915        0.70938709461142        0.70552488713140
H            7.30685200134017       -4.29910270603569        1.67243975949814
H            5.68097929954945       -3.59546024838968        1.84666239409535
H            6.24273022697206       -4.17256801684877        0.25053511982742
H            4.57919537985817       -2.51373811342015        0.06008151772857
H            0.07600072467624       -2.04554464619976       -1.37682821385776
H           -1.01729712939586       -1.47076161463606       -0.10648411252483
H            0.54441020823321       -2.13003303304225        0.31807469736386
H           -4.90779272957805        2.99389480567423       -0.08277841817288
H           -3.78113250108707        2.98882831166703        2.75319253640545
H           -4.88406702813187        1.75828271713849        2.09755791702938
H           -5.42551061370575        3.43000398932333        2.29206852007912
H           -2.83971369901318        4.78152192998241        1.24499633514846
H           -3.42411594068677        4.93279143890544       -0.42030127182688
H           -4.50930110189008        5.23070120065843        0.93103642291951
H           -0.51832794145385        3.03032283011553        2.25985035059341
