72
 energy: 61.115930754549 xtb: 6.6.1 (8d0f1dd)
N           -1.04564357215269        3.22084536579954        0.81472895497172
C           -2.17036089751405        2.75943485374731        0.83041872657942
C           -3.36506798114053        2.43011010568975        0.37099281855600
C           -3.68548702388145        0.99943407055696        0.18123573404148
C           -4.75470204958607        0.54348281723955       -0.59708988095057
C           -5.09067391981935       -0.79859207302288       -0.62423490084513
O           -6.12046293093925       -1.34190136741418       -1.33518643841471
C           -6.94140390292279       -0.50040023508353       -2.10301840689096
C           -4.35296132304278       -1.72348886890375        0.14840277538075
O           -4.78224040906555       -3.01717543031868        0.09237240968732
C           -4.13741556369536       -3.96790198305466        0.89906807865605
C           -3.28106621521779       -1.27001446557574        0.89444196334706
C           -2.94909158229461        0.07352753782518        0.90088105550459
C           -3.13730303937231        3.07909065631193       -1.76205200423442
C           -2.48047049118836        2.10422306392961       -2.37452209999262
C            0.39922481188167        0.46982362448055       -0.63494544519239
N            1.00333811676089       -0.58423402848126        0.00924716087729
C            2.41066721720019       -0.55445858696558        0.26237842374468
C            3.29004184121064       -1.01340473678887       -0.93039962233969
C            4.73652021122387       -0.81365810898891       -0.60384360325770
C            5.36060883874253        0.39402053366302       -0.86315971881892
C            6.68972731469662        0.59719568601920       -0.52199576954062
C            7.41835968621191       -0.40605723093231        0.09204114382181
O            8.72810160325844       -0.32040895812586        0.46684370531258
C            9.42417528788640        0.86919744193882        0.20192344510511
C            6.79093457535425       -1.64182389594626        0.36849555543417
O            7.58666832527349       -2.57152985542781        0.97144299299736
C            7.05345531243336       -3.84027701559569        1.24598136436949
C            5.46588619246878       -1.82591271993995        0.02286300180107
C            0.34465787345283       -1.85509721563900        0.09059352832591
C           -4.53514303048787        3.29234863146103        0.82396249116159
C           -4.76251389415102        2.86889663127029        2.27499658779269
C           -4.30249040768618        4.79771456022447        0.73362925245694
H           -5.32801434549964        1.23868762344735       -1.18951005018629
H           -7.44954020264691        0.24689776114265       -1.48364903958375
H           -7.68648790875408       -1.15468814719686       -2.55451098975498
H           -6.37938423944040        0.00427907151103       -2.89609323154325
H           -4.20156886781549       -3.70824564207379        1.96167029622570
H           -4.66782340384208       -4.90291293372440        0.72590337996984
H           -3.08490162110246       -4.09342337151374        0.62072140188739
H           -2.70788794569535       -1.94632529090053        1.50694864044426
H           -2.12113828386657        0.41786367373811        1.50167434189816
H           -4.21203859715910        3.13571412101748       -1.77785583506674
H           -2.62871215959520        3.96514199413387       -1.42591171412578
H           -2.97563978014677        1.21637335842762       -2.72991791126617
H           -1.40752503959695        2.12154448501824       -2.43916618645479
H           -0.64767139962736        0.41075449781819       -0.84231993226145
H            0.90910581480483        1.40980005977124       -0.63980973795366
H            2.62203981728417       -1.19688681948236        1.12336801294758
H            2.69633422386977        0.46960377032873        0.51704241506847
H            3.01243877492560       -0.42190420341897       -1.80421277610535
H            3.08966652325461       -2.06462606887743       -1.14323118235147
H            4.81266182251053        1.18889913986092       -1.34675132507600
H            7.14847513315103        1.54715786260443       -0.74671551206344
H            8.98687346469261        1.72291869379810        0.73140899923250
H            9.46019332262900        1.08861689861915       -0.87079973158526
H           10.43608429871212        0.70061178664409        0.56773363857439
H            7.86724857257459       -4.40558940609539        1.69821759642616
H            6.21723188885788       -3.78644254148008        1.95193418253903
H            6.72519513159809       -4.34905855405692        0.33296086973789
H            4.97737604599704       -2.76678690673312        0.22588382620072
H            0.81067759361197       -2.60695411672324       -0.55711165309177
H           -0.69889964212587       -1.74745796047242       -0.19759664041876
H            0.39296350769170       -2.21807776548251        1.12324926457216
H           -5.42299109296397        3.03685290390592        0.23777042270322
H           -3.89007733018825        3.14018780738080        2.86725022217878
H           -4.88511024446955        1.78843065450786        2.32817238518723
H           -5.64128272262544        3.34901687859877        2.69099658976748
H           -3.35943916744838        5.07181327583932        1.20066912558420
H           -4.29056012920711        5.14817426010856       -0.29508262666019
H           -5.10716632647396        5.31395772219332        1.25390639644889
H           -0.44667526692915        3.26236346081373        1.62875711663405
