25
 energy: -42.187810866208 gnorm: 0.007950696963 xtb: 6.6.1 (8d0f1dd)
C            2.97835110609598        1.14340084140248        0.58607353455699
N            2.27961409006755        0.02747898848689       -0.04258750695743
C            2.95115431140249       -0.91290524102625       -0.58739186791424
N            3.33260024276816       -2.01547817520536       -0.84322297240357
C            0.20883734375974       -1.22256305684322        0.13489771300431
C            0.86044425887195       -0.02659074204654       -0.02228661023626
C            0.09985986742237        1.20145456430763       -0.20729353601365
O            0.58779118778621        2.29611236731340       -0.41794241443695
N           -1.27771089052828        1.02620860273411       -0.12820600588151
C           -2.12774288852878        2.19687747777106       -0.25791088245714
C           -1.94211682261371       -0.17394793494013        0.03737553337212
O           -3.14490499688500       -0.24035454938159        0.07395491185000
N           -1.13685983724135       -1.30630312387323        0.15920615694890
C           -1.78481325978205       -2.58987470235535        0.32277025181185
H            2.73685755318713        1.16787764830486        1.65011250104868
H            4.05165530090290        1.02028437398704        0.45963563175671
H            2.65620190479772        2.08268053298881        0.13181212817022
H            3.97394881208138       -2.43287085840060       -1.49729322371995
H           -1.49137120630447        3.07310419542062       -0.36629688736002
H           -2.77683707523263        2.09267991504619       -1.12877068237374
H           -2.75986975784114        2.29155539545937        0.62617684085558
H           -1.44440613578854       -3.07184843773950        1.23962894700528
H           -1.56513034467505       -3.23744978940967       -0.52706945483771
H           -2.86009501953305       -2.42441803330769        0.37866283981499
H            0.75497376991044       -2.14687171709401        0.25713667229716
