25
 energy: 0.000000000000 xtb: 6.6.1 (8d0f1dd)
C            3.23720163006194        1.16630919979326        0.08434469647475
N            2.29877817382611        0.07527477071623        0.03981603040599
C            2.58028210190900       -1.21425402444508        0.03006176031096
N            1.43813958087363       -1.93419271955128        0.00098261760884
C            0.39035688448383       -1.05887472636071       -0.00790371836672
C            0.93510056364412        0.21347819449412        0.01709077491437
C            0.09450143893243        1.40504303904423       -0.00410947031874
O            0.49712751527797        2.54126714362870       -0.00342325688240
N           -1.25076640035757        1.06271879480407       -0.03085478223738
C           -2.21907211982101        2.15522099834493       -0.05001256985998
C           -1.81739487048744       -0.20012725993278       -0.04692818574614
O           -2.99983886758376       -0.37846417018721       -0.07008878229737
N           -0.92618586207120       -1.30210215599479       -0.03682761578324
C           -1.46982264913417       -2.64643102187190       -0.06029820460571
H            3.71247264356769        1.21471455160235        1.06488849150277
H            4.00791497605742        1.03430808813993       -0.67357694370751
H            2.69910007168542        2.09770118228144       -0.09130154882931
H            3.56654120610678       -1.63682992603973        0.04233140067262
H           -1.67107961066214        3.09322851271934       -0.02552706933167
H           -2.82428953597071        2.09428624779827       -0.95318082946668
H           -2.87644029173232        2.07745725625962        0.81450067533302
H           -1.17061996399332       -3.19584890659852        0.83242232437030
H           -1.14560257411436       -3.17511610292205       -0.95688275822323
H           -2.55549792440841       -2.55659984320617       -0.07459039797972
H            1.38130855184625       -2.94313852034425       -0.01389874181052
25
 energy: -1.966507246356 xtb: 6.6.1 (8d0f1dd)
C            3.23439379981342        1.17075365635196        0.08566674017577
N            2.31613862901277        0.08138756097662        0.03755296738719
C            2.65617316168914       -1.24229954950609        0.03129124537706
N            1.45683508500864       -1.94601149750508        0.00142309328061
C            0.40453884950175       -1.06734511485126       -0.00837813786067
C            0.93292903403877        0.21045883104118        0.01509778048215
C            0.09512863638471        1.38806174823479       -0.00476113892625
O            0.48966899370848        2.55436786280120       -0.00337510443787
N           -1.27011717194586        1.05293130079523       -0.03112178741131
C           -2.23163251368939        2.15351667786384       -0.04978373301171
C           -1.83156999947755       -0.19814627052105       -0.04775815882125
O           -3.02944410064398       -0.37737512330156       -0.07115366306606
N           -0.93764085617229       -1.30119693177954       -0.03736467772043
C           -1.49831393256917       -2.63501760123190       -0.06078199923297
H            3.70779489774830        1.21088008049142        1.06918065965895
H            3.99924229449223        1.02877810519614       -0.67777273270979
H            2.68328528549237        2.09219554254583       -0.09144962521950
H            3.73247470142495       -1.62537146362260        0.04756243804499
H           -1.67419924405462        3.08766408044728       -0.02519707918107
H           -2.84062235956296        2.10470246518329       -0.95267576510603
H           -2.89280275304185        2.08779382238605        0.81434761736209
H           -1.20304651812921       -3.18901182414646        0.83162020105401
H           -1.17783147398168       -3.16856288082387       -0.95705919466672
H           -2.58445641890574       -2.53579971789930       -0.07519723872665
H            1.37528864179500       -2.94832515695414       -0.01287881057722
25
 energy: 7.351598751863 xtb: 6.6.1 (8d0f1dd)
C            3.22816682057653        1.16885556023056        0.08623366964205
N            2.32520377477241        0.07664271527520        0.03313679179504
C            2.72938581589728       -1.26746824504198        0.03298790378859
N            1.48160958541341       -1.95565310229274        0.00267221134694
C            0.42166001279635       -1.08189503046894       -0.00876900563136
C            0.93021124738170        0.20162844065596        0.01263447548351
C            0.09662928807142        1.36540836716333       -0.00525519081006
O            0.47172837265640        2.54642413278737       -0.00329495131319
N           -1.28818898649931        1.04647185822799       -0.03133763976781
C           -2.24288430596067        2.15479650600143       -0.04942600115014
C           -1.83527808425998       -0.19647003406659       -0.04842197349473
O           -3.03809445569274       -0.38006638482554       -0.07235290685383
N           -0.94139816314522       -1.30076126859581       -0.03777224000845
C           -1.53138060158834       -2.62166304010919       -0.06141348022279
H            3.70301454297051        1.20923578811725        1.07033043657776
H            3.99151754237827        1.02830622013251       -0.68001468165471
H            2.66972513875451        2.08502289703226       -0.09014615687347
H            3.90322950360673       -1.58327426391895        0.05360199773394
H           -1.67858217961866        3.08572131906929       -0.02466387394802
H           -2.85652377998960        2.11533011222699       -0.95105064861759
H           -2.90850983042893        2.09818067118713        0.81336456544615
H           -1.25051850505605       -3.18431985759058        0.83091821043354
H           -1.22487010316949       -3.16414648616159       -0.95794412632508
H           -2.61748029779583       -2.50249262112992       -0.07595550083060
H            1.37384231586550       -2.95478565173343       -0.01102798859837
25
 energy: 14.089402780595 xtb: 6.6.1 (8d0f1dd)
C            3.22577255509922        1.16825661281648        0.08602973466829
N            2.32834242362467        0.07100263683512        0.03003891387595
C            2.75843777034767       -1.27655810686756        0.03390956181623
N            1.49408413514410       -1.95979732904408        0.00401355899716
C            0.42970585561672       -1.09167092534713       -0.00853612865271
C            0.93114253697049        0.19609735251404        0.01164843126305
C            0.09917119243774        1.35842108739342       -0.00528355142269
O            0.46293443230639        2.54042102738688       -0.00307675661848
N           -1.29363491056002        1.04680033301876       -0.03145925652667
C           -2.24774340713150        2.15511521692969       -0.04930625762960
C           -1.83362059455487       -0.19699986619966       -0.04877088192868
O           -3.03605393583293       -0.38433429119959       -0.07328182367945
N           -0.93945867790807       -1.30259933228166       -0.03770045905436
C           -1.54904653562048       -2.61625414879521       -0.06169874916498
H            3.70020525705662        1.21077235024186        1.07041765095447
H            3.98972725413778        1.03376443482197       -0.68072005081316
H            2.66421384892632        2.08319955117791       -0.08901270927964
H            3.98366648827323       -1.56149933631213        0.05544038995124
H           -1.68335549034297        3.08547616592096       -0.02440534488327
H           -2.86279383008302        2.11658650226490       -0.95030939112751
H           -2.91462471589750        2.09918401082900        0.81288278703489
H           -1.28034106130812       -3.18376656861212        0.83098471100564
H           -1.25415465210388       -3.16362094977516       -0.95884742328144
H           -2.63421431912255       -2.48013236593324       -0.07641144442225
H            1.37385304846115       -2.95883545961141       -0.00951161493477
25
 energy: 16.360643412518 xtb: 6.6.1 (8d0f1dd)
C            3.22518071104734        1.16768462947986        0.08593480766540
N            2.32828022692528        0.06853623938209        0.02860518368614
C            2.76123460783076       -1.27766512969323        0.03439992433432
N            1.49472594256889       -1.95978819105840        0.00449597514323
C            0.42975293149373       -1.09370529664812       -0.00836868011753
C            0.93161180685838        0.19523704183755        0.01140904251296
C            0.10069112151600        1.35958634470893       -0.00535545038449
O            0.46074083741876        2.53994764150899       -0.00286219444789
N           -1.29382688035675        1.04849805601787       -0.03151688848666
C           -2.24876326240405        2.15519177146830       -0.04931269362834
C           -1.83338881074224       -0.19670191958933       -0.04882352533900
O           -3.03521126744714       -0.38416837253104       -0.07353543724620
N           -0.93883502006239       -1.30318188206096       -0.03752822186832
C           -1.55195683895412       -2.61597380944954       -0.06167943621754
H            3.69859856426797        1.21043469154351        1.07059261934233
H            3.98924714072321        1.03519559901192       -0.68073981262540
H            2.66320125418655        2.08274457914507       -0.08880204759984
H            4.00706411067029       -1.55963901907013        0.05551681213006
H           -1.68563599795668        3.08597962400371       -0.02440517255812
H           -2.86382386738092        2.11566039553363       -0.95027000413650
H           -2.91557547235433        2.09819477623368        0.81288734829605
H           -1.28563982406875       -3.18367368147195        0.83093161872369
H           -1.25929398667287       -3.16346470683960       -0.95883493599915
H           -2.63647439187661       -2.47699152052121       -0.07645671002530
H            1.37031103270596       -2.95890925876960       -0.00924822500662
25
 energy: 18.487174863644 xtb: 6.6.1 (8d0f1dd)
C            3.22471153088208        1.16696287072239        0.08588061837076
N            2.32746502704437        0.06673636070990        0.02707386194963
C            2.75805278021051       -1.27673987720954        0.03531902470860
N            1.49273939526673       -1.95869453237672        0.00484531116132
C            0.42769580533041       -1.09375810478233       -0.00830199881885
C            0.93168246910571        0.19557805373843        0.01126182606318
C            0.10198851923759        1.36238821165069       -0.00551098048402
O            0.45901544657393        2.54121877208903       -0.00259146175570
N           -1.29334904972758        1.04983198638845       -0.03158558306273
C           -2.24912739898728        2.15505261213436       -0.04932851720935
C           -1.83409446176358       -0.19631146623524       -0.04881916257352
O           -3.03526555312345       -0.38322594090245       -0.07360143376704
N           -0.93869027869617       -1.30329612065428       -0.03733749632711
C           -1.55208161225326       -2.61656342614697       -0.06160907947047
H            3.69688418585293        1.20916841818023        1.07082725575990
H            3.98875953907195        1.03496704334724       -0.68047980619574
H            2.66290568744722        2.08230749281831       -0.08895128859996
H            4.02656991437717       -1.56348136740495        0.05527254148107
H           -1.68735382885605        3.08651410625400       -0.02442170874029
H           -2.86422328137200        2.11493601299611       -0.95026855377029
H           -2.91588071301867        2.09742395279872        0.81292756501033
H           -1.28584909228093       -3.18350527682078        0.83093770737079
H           -1.25945775514660       -3.16318469735042       -0.95876814631768
H           -2.63619230298720       -2.47751999812935       -0.07641001560305
H            1.36530969574837       -2.95777648364274       -0.00932658303248
25
 energy: 19.609538539356 xtb: 6.6.1 (8d0f1dd)
C            3.22454102104243        1.16680027920316        0.08588173344734
N            2.32684589211502        0.06682932550328        0.02637173266702
C            2.75337756694520       -1.27506436051371        0.03638184751243
N            1.49087327230031       -1.95788950438756        0.00487492349950
C            0.42580051542007       -1.09250281754565       -0.00842550566359
C            0.93116715019218        0.19645724709591        0.01124833247169
C            0.10203248140057        1.36373989028807       -0.00562506143549
O            0.45855440165308        2.54268138029734       -0.00250511972752
N           -1.29332652389692        1.04961716325044       -0.03162644904608
C           -2.24903809114271        2.15495537223097       -0.04933237543313
C           -1.83524225710232       -0.19610684061760       -0.04878824768416
O           -3.03622200170485       -0.38276457898587       -0.07348151258520
N           -0.93920578209028       -1.30298031904756       -0.03728968223081
C           -1.55109522987054       -2.61701602825819       -0.06157715621833
H            3.69626436155892        1.20838752646955        1.07093418177069
H            3.98866635381084        1.03396465704489       -0.68016065219749
H            2.66305923418239        2.08221393012745       -0.08922939067857
H            4.03563305250981       -1.56906131956862        0.05482503223568
H           -1.68741382509523        3.08663803291894       -0.02441175746198
H           -2.86418232996641        2.11517361285406       -0.95028619576530
H           -2.91581296734804        2.09764219306221        0.81296219017183
H           -1.28369834949475       -3.18348115123534        0.83098157855210
H           -1.25737092523550       -3.16309515715244       -0.95877422233153
H           -2.63534347326792       -2.47926363888314       -0.07635344915752
H            1.36335112102091       -2.95684629197856       -0.00956087856425
25
 energy: 20.141787740710 xtb: 6.6.1 (8d0f1dd)
C            3.22452554531449        1.16702012547450        0.08590491510850
N            2.32671068855121        0.06766955900074        0.02630059051004
C            2.75043077854521       -1.27395093469868        0.03749096240586
N            1.49019619770286       -1.95776165425888        0.00469491464420
C            0.42497279927802       -1.09150210255302       -0.00866783478241
C            0.93052242128577        0.19704759114259        0.01121943466799
C            0.10141455656886        1.36360591702939       -0.00570882292415
O            0.45887756163815        2.54323404892787       -0.00260207939807
N           -1.29381409993294        1.04900341828381       -0.03164998730679
C           -2.24905795430086        2.15510626755022       -0.04931543611652
C           -1.83610750689152       -0.19591292055951       -0.04877024657577
O           -3.03715782092446       -0.38274922583525       -0.07332685611345
N           -0.93994147082372       -1.30269775937830       -0.03735975470888
C           -1.55062362379983       -2.61706684605089       -0.06158614552726
H            3.69634254727516        1.20836651574910        1.07095955260196
H            3.98879301305300        1.03341356074088       -0.67997846948709
H            2.66313367481026        2.08233393220225       -0.08938937881342
H            4.03964451753435       -1.57306417690231        0.05432600588489
H           -1.68690158640744        3.08659992018085       -0.02438172882943
H           -2.86417973934170        2.11574909504802       -0.95029573139842
H           -2.91581013064243        2.09820586948702        0.81301037137218
H           -1.28237132266577       -3.18350439021366        0.83099353742546
H           -1.25612980361257       -3.16313313747350       -0.95879247986112
H           -2.63511589420484       -2.48032572344730       -0.07632051299541
H            1.36386131992696       -2.95665834727393       -0.00972092363560
25
 energy: 20.273792929653 xtb: 6.6.1 (8d0f1dd)
C            3.22456481919865        1.16721897507382        0.08592486218802
N            2.32682489940410        0.06821602970815        0.02652594695094
C            2.74971101329930       -1.27372939493057        0.03832478232204
N            1.49031256777065       -1.95795180908823        0.00446405149227
C            0.42500659236757       -1.09128536048295       -0.00889269965308
C            0.93016259508590        0.19714141991633        0.01113594217833
C            0.10086353192844        1.36308064126622       -0.00575837694511
O            0.45930995353069        2.54304038597650       -0.00272873026079
N           -1.29423815400159        1.04880333947628       -0.03165644515756
C           -2.24920732644511        2.15534765736680       -0.04929225179346
C           -1.83634626625753       -0.19575269252785       -0.04877193102888
O           -3.03749228067925       -0.38285685170515       -0.07323856265217
N           -0.94039676244867       -1.30263181498682       -0.03746377289788
C           -1.55069083963560       -2.61694583213355       -0.06160914742820
H            3.69660118006065        1.20864694810791        1.07094687844092
H            3.98889216097510        1.03340958743113       -0.67997869143402
H            2.66310279824960        2.08244688916818       -0.08940089955707
H            4.04067684257547       -1.57430579952251        0.05394125340409
H           -1.68661095111564        3.08658703057352       -0.02435898918513
H           -2.86426979784921        2.11608467091883       -0.95028280047421
H           -2.91589589545141        2.09853483364286        0.81304826178639
H           -1.28224671482353       -3.18348653341916        0.83097827693966
H           -1.25605694048947       -3.16317870753142       -0.95878957708698
H           -2.63528335394942       -2.48051649597090       -0.07631235872575
H            1.36492099663653       -2.95688851415540       -0.00972112527506
