  25
        -42.01308600
 C          3.6648683098        0.7536161468        0.4759969364
 N          2.5508939964       -0.0393417490        0.0600578174
 C          2.4113604370       -1.3931995223        0.5295965981
 N          1.3415053626       -2.0487968114       -0.2040196781
 C          0.4658203981       -1.0676271828        0.0673481489
 C          1.4199020439       -0.3100627828        0.9276343465
 C         -1.2916012056        2.0560511431       -0.8144364709
 O         -1.4320111228        2.6197345361       -1.8050311629
 N         -1.1246856502        1.2889694819        0.1680652725
 C         -0.7007974575        1.7266441187        1.5017291164
 C         -1.7541336979       -0.0801583425        0.0371970276
 O         -2.9436133641       -0.1669603256        0.0334689051
 N         -0.8619508399       -1.0992954181       -0.1670890400
 C         -1.4351251072       -2.3660647037       -0.6313007487
 H          3.9856284342        0.5399997324        1.5017601283
 H          4.4942051528        0.5544231052       -0.2030408434
 H          3.3900600536        1.8048436336        0.4001423186
 H          3.1652619257       -1.9434406005        1.0583799516
 H         -0.3800548329        2.7653748796        1.4590487910
 H         -1.5324603692        1.6240425165        2.1983319495
 H          0.1387667550        1.0876510910        1.8093768664
 H         -1.0655537946       -3.1857597649       -0.0181027491
 H         -1.1714667373       -2.5343602896       -1.6750268933
 H         -2.5177841491       -2.3119350783       -0.5440090749
 H          1.3358009444       -2.8403625709       -0.8287782255
