  25
        -42.04481463
 C          3.3851945421        1.1768494412       -0.0040736019
 N          2.4354319048        0.0939768915       -0.0120282605
 C          2.7715688637       -1.1900630394       -0.0253663286
 N          1.6728723054       -1.9500536989       -0.0039006602
 C          0.5418131276       -1.1190445290        0.0242616180
 C          1.0734336703        0.2014667510        0.0189864168
 C          0.3224046264        1.4651727025        0.0127548382
 O          0.8867100279        2.5625336131       -0.0454874793
 N         -0.9896754333        1.2886545863        0.0702612852
 C         -1.9439259147        2.3014244275        0.0743008816
 C         -4.2735475825        0.2077685083       -0.1970256770
 O         -3.9018134062       -0.8421701594       -0.0323728303
 N         -0.6903276700       -1.4707757584        0.0452220604
 C         -1.1694323597       -2.7973542492        0.0546902516
 H          3.8881108642        1.2257605995        0.9627145943
 H          4.1296946681        1.0263380815       -0.7843945602
 H          2.8548579677        2.1159511321       -0.1708168562
 H          3.7796917141       -1.5585889194       -0.0530713231
 H         -1.4958964900        3.3049204095        0.0397086553
 H         -2.6146748957        2.1733910145       -0.7848123468
 H         -2.5636355050        2.2117289189        0.9741407641
 H         -0.8271221301       -3.3500235731        0.9378609800
 H         -0.8614210426       -3.3491635754       -0.8415057804
 H         -2.2581826447       -2.7594745463        0.0760559328
 H          1.6531016010       -2.9592468216       -0.0092388665
