  25
        -42.07681164
 C          3.0809734547       -0.2144477526       -1.1342698841
 N          2.3394801911        0.2933183848        0.0083550263
 C          2.9023159484        0.9928895071        0.8921873933
 N          1.0006795831       -2.3440611454        0.1056423522
 C          0.3721286351       -1.2308913319        0.0034261455
 C          0.9355713006        0.0813507273        0.0319947811
 C          0.1128827084        1.2539365941        0.2164037352
 O          0.5801619159        2.3507701889        0.4634111385
 N         -1.2452256757        1.0418211491        0.0635508473
 C         -2.1397144244        2.1789766538        0.1285752921
 C         -1.8396364770       -0.2001561963       -0.1156689336
 O         -3.0322605318       -0.3059801833       -0.2385932857
 N         -0.9990997094       -1.2997269725       -0.1167681623
 C         -1.5989672732       -2.6138108186       -0.1851555497
 H          4.1476628905       -0.1852765284       -0.9158497192
 H          2.7745779873       -1.2277297388       -1.3840769789
 H          2.8812829604        0.4245706464       -1.9964970635
 H          2.4818634065        1.5037053812        1.7383132701
 H         -1.5609758600        3.0590179899        0.4023929365
 H         -2.6202096298        2.3316253134       -0.8403434888
 H         -2.9255654069        1.9891561464        0.8614960947
 H         -1.2781768998       -3.2073738747        0.6728597122
 H         -1.2701339494       -3.1274480299       -1.0903812195
 H         -2.6821304676       -2.5035147086       -0.1921680190
 H          1.9932347289       -2.3859929764        0.2674707278
