  72
        -99.41898276
 N         -0.8901291535        1.4843170727        1.1817128970
 C         -2.3068984911        1.4867971450        1.3448570731
 C         -3.1075731886        2.1537115055        0.1708932937
 C         -3.9092534866        0.8769583304        0.0956370203
 C         -5.0132673827        0.2924136578       -0.4984440361
 C         -5.2406356656       -1.0338536907       -0.1768086169
 O         -6.2923426567       -1.7642894967       -0.5514402927
 C         -7.3211173342       -1.1732653128       -1.3232876016
 C         -4.2178853241       -1.8714756208        0.5746796276
 O         -3.3877725161       -2.5285861632       -0.4049889324
 C         -3.8919037512       -3.7445091167       -0.9041353238
 C         -3.2647308183       -1.0666804917        1.4160199707
 C         -3.1214051413        0.2242169476        1.0764101293
 C         -2.2067813974        2.3148126106       -1.0596913532
 C         -1.2960317634        1.0988284335       -1.2171455920
 C         -0.2809429433        1.0527830852       -0.0712562805
 N          0.3867611749       -0.2198301128        0.1147083503
 C          1.8124662358       -0.2129644216        0.2798708298
 C          2.6032298874       -0.3261803234       -1.0475353393
 C          4.0706785952       -0.2252509927       -0.7689855155
 C          4.7355231243        0.9886794192       -0.8777635713
 C          6.0832701985        1.0925360293       -0.5756518060
 C          6.7987304329       -0.0173821135       -0.1451338254
 O          8.1020757739       -0.0328349439        0.1821684320
 C          8.8512420839        1.1572693559        0.0917966696
 C          6.1262535421       -1.2679714706       -0.0263438998
 O          6.8928389691       -2.2900275145        0.3966710117
 C          6.3214961484       -3.5680297831        0.5480541756
 C          4.7779544309       -1.3463904963       -0.3399440008
 C         -0.1944738835       -1.4509143874       -0.3491879924
 C         -3.8992338613        3.4343940652        0.4931236939
 C         -4.9765475625        3.1838689501        1.5490271863
 C         -2.9832461205        4.5671457198        0.9514597473
 H         -5.6747074022        0.8467719573       -1.1458077260
 H         -7.7611580865       -0.3205706389       -0.8006681278
 H         -8.0735582068       -1.9482738182       -1.4550266069
 H         -6.9479716378       -0.8540915944       -2.2996560223
 H         -4.8816974275       -3.6221414200       -1.3529073464
 H         -3.1848880912       -4.0681657754       -1.6659393340
 H         -3.9488613917       -4.4990898242       -0.1117632355
 H         -2.6761782713       -1.5900597083        2.1502623355
 H         -4.7330301138       -2.6409358207        1.1618733377
 H         -2.8302205819        2.4268965403       -1.9479895712
 H         -1.5947618405        3.2095735591       -0.9509025663
 H         -1.9053754165        0.1964755189       -1.2306286411
 H         -0.7547666519        1.1562852377       -2.1624249727
 H         -2.5299298139        1.9147364034        2.3237448794
 H          0.5020758551        1.7990404414       -0.2839572664
 H          2.0933114317       -1.0534483053        0.9222166403
 H          2.1048718986        0.7096425835        0.7862818040
 H          2.2887488557        0.4758979168       -1.7165782574
 H          2.3710914498       -1.2831322946       -1.5158373406
 H          4.2016847395        1.8655789881       -1.2106463691
 H          6.5725244951        2.0472459567       -0.6785425085
 H          8.4541035200        1.9314237615        0.7552243368
 H          8.8797935499        1.5346552210       -0.9346714768
 H          9.8585512767        0.8929234106        0.4077293318
 H          7.1284703608       -4.2091147060        0.8976879557
 H          5.5169598553       -3.5617570942        1.2900773082
 H          5.9401533987       -3.9519069722       -0.4030536954
 H          4.2609078387       -2.2898299496       -0.2613036701
 H         -0.1283371308       -1.5672766414       -1.4379266898
 H         -1.2434007254       -1.5161440447       -0.0624395206
 H          0.3372317960       -2.2803015978        0.1159602191
 H         -4.3992605163        3.7404588578       -0.4332489253
 H         -4.5347750693        2.9268045792        2.5085154336
 H         -5.6400062235        2.3759970465        1.2510565162
 H         -5.5725658798        4.0825183584        1.6851434740
 H         -2.3855439037        4.2588034412        1.8052690603
 H         -2.3130589142        4.8885285175        0.1596306000
 H         -3.5833623269        5.4241160251        1.2464081768
 H         -0.3925222686        1.1148178602        1.9805221368
