72
 energy: -99.316549585311 gnorm: 0.007915895162 xtb: 6.6.1 (8d0f1dd)
N           -1.93682188945680        2.86182475124942        2.24125248669575
C           -1.89564405921777        2.14007379613502        1.22405556924969
C           -3.04285646267436        1.93168381639084        0.27411309449881
C           -3.50119358122669        0.48293189991624        0.34392792002432
C           -4.42140984363707        0.00220441687272       -0.58980355023924
C           -4.88319305267269       -1.30283983352894       -0.54612011902048
O           -5.77719510619799       -1.84163502389386       -1.39946901886976
C           -6.39334327157444       -1.02044592831713       -2.36358362665116
C           -4.40271690691247       -2.18210255722189        0.46273042547606
O           -4.89886294831620       -3.43374821744610        0.42483733747612
C           -4.54127556195697       -4.34530242327554        1.43784502316600
C           -3.49017576117175       -1.69793889533600        1.38681266421197
C           -3.04925509215024       -0.38183615401241        1.32903355397875
C           -2.48892796594811        2.24599915408002       -1.14080762077446
C           -1.56123260161198        1.16200424961183       -1.71863466829180
C           -0.23560231499092        1.11605499939098       -1.06479058167082
N            0.40769732740339        0.01491757832160       -0.70778634254318
C            1.76014759248330        0.09050604311832       -0.20736429837164
C            2.79779660973565       -0.27640408534957       -1.28367844380908
C            4.17379351348548       -0.11681433377350       -0.72493025850966
C            5.13693919208220        0.61585530434863       -1.29759622671913
C            6.47261588517436        0.83364192641136       -0.81573807427280
C            7.09128254226420        0.18016577511821        0.19634892135490
O            8.31957868741663        0.42884109529368        0.66591302838880
C            9.06737783614970        1.51324378444281        0.15479575431511
C            6.47734122221403       -0.97439970509054        0.96359647064054
O            6.08601702699682       -0.83491267975649        2.10262126739486
C            6.11835229093650       -3.38570316159492        0.81121929586158
C            6.46017555340636       -2.24127595492979        0.21504421287667
C           -0.18383901627420       -1.29585513112760       -0.83440791961375
C           -4.26545150194766        2.84782078322491        0.57797045805708
C           -4.89113735082592        2.51356314170752        1.92984693466261
C           -3.93078658010998        4.33554388449873        0.51762048871557
H           -4.79370590732959        0.66439033037711       -1.35367836435734
H           -6.92081482949321       -0.18254059794685       -1.89808685141238
H           -7.11166360629414       -1.65883033319408       -2.87405558765054
H           -5.66908172080482       -0.64007895665950       -3.09131034042890
H           -4.82475948040899       -3.97558191297711        2.42754569171042
H           -5.09610519967803       -5.25570387465023        1.22007185102498
H           -3.46856563859196       -4.56285661916227        1.42195663675773
H           -3.12262502583967       -2.33605031363212        2.17392208827987
H           -2.36419838856201       -0.03417371304373        2.08666173318311
H           -3.32777683791643        2.37083325582736       -1.82453798821561
H           -1.95017846535116        3.19352284834093       -1.10444844015199
H           -2.06065454034149        0.19529228075439       -1.68414758732416
H           -1.39767437905120        1.41718254441841       -2.77371740639135
H           -0.98711343736645        1.60514552483572        0.88536007959134
H            0.31360131105154        2.04316555572978       -0.98687425804939
H            1.86538977329020       -0.58831543257380        0.64303454643031
H            1.95945050035303        1.10627698430281        0.14037081516302
H            2.66251028845464        0.36273589220027       -2.15826604932869
H            2.64494546582587       -1.31487075649494       -1.59187618785104
H            4.90495228543253        1.13637204592261       -2.21907897716848
H            7.01611744300562        1.61545745835187       -1.32723968429669
H            8.53814081074314        2.45938762070414        0.29545702013298
H            9.29563627404310        1.37244796685155       -0.90552279656850
H            9.99307146467022        1.52310132037295        0.72659636358717
H            6.76327583318291       -2.20230028902809       -0.81495919967348
H            5.83387025210899       -3.39471474093183        1.85336808190528
H            6.12559039895010       -4.32774309442058        0.29254776573196
H            4.34631901449718       -0.62142424035722        0.21212888748602
H           -0.36916373612693       -1.54385449865673       -1.88126083013221
H           -1.13034955095387       -1.34262324813861       -0.28931746470239
H            0.49287823169268       -2.03715597896246       -0.41771401845245
H           -5.01034137558415        2.63723191317628       -0.19797363826248
H           -4.18995776143969        2.73162027653750        2.72895548883662
H           -5.17415310379783        1.46511297086995        1.98405536189200
H           -5.78279789580697        3.11699408290057        2.07747904783936
H           -3.17025179713080        4.58143285264349        1.25221972186618
H           -3.58819359994314        4.63597778376970       -0.46900590294926
H           -4.82350007342468        4.91065126879905        0.74865563826840
H           -1.09380180992688        2.95296303014922        2.79907543859492
