  25
        -42.13960029
 C          3.0821614903        1.0717890820        0.5544771998
 N          2.1762979808        0.0493498086        0.1290377384
 C          2.4853972906       -1.2912618910        0.1950355280
 N          1.4463556074       -1.9645161109       -0.2257802422
 C          0.3562283940       -1.1005237490       -0.6701503591
 C          0.9341026035        0.2280407771       -0.3325388275
 C          0.0940647697        1.4040065926       -0.2099768725
 O          0.5040131530        2.5428583073       -0.1427945721
 N         -1.2523771421        1.0785202894       -0.1314827075
 C         -2.2099945615        2.1622601688       -0.0359921789
 C         -1.7666835622       -0.2007093908        0.1310007992
 O         -2.9138929690       -0.3366422521        0.4663086454
 N         -0.9027134367       -1.2681479281        0.0127178538
 C         -1.4359719570       -2.6074166112        0.1502842567
 H          3.3973752091        0.8814754458        1.5817822018
 H          3.9767985714        1.0432517672       -0.0728137723
 H          2.6086858047        2.0495776405        0.4739899900
 H          0.2000250721       -1.2607785872       -1.7525775176
 H         -1.6854757799        3.1021676171       -0.1937789312
 H         -2.9871406657        2.0255178590       -0.7896828110
 H         -2.6923307064        2.1602483945        0.9436176243
 H         -0.8826760712       -3.1526478380        0.9164400904
 H         -1.3814032302       -3.1466894007       -0.7975559468
 H         -2.4777514223       -2.5252223518        0.4574204878
 H          1.4404759561       -2.9702161709       -0.3112795989
