  72
        -99.34008640
 N         -2.3523348013        2.8176076717        2.8307412732
 C         -2.2120711141        1.9742734092        1.9194026181
 C         -3.0717546291        1.9255114339        0.6836905108
 C         -3.7902623852        0.5873716805        0.6168821586
 C         -4.4528952223        0.2127506044       -0.5528887439
 C         -5.0986751084       -1.0078743500       -0.6592142752
 O         -5.7608163436       -1.4476672175       -1.7488735790
 C         -5.9236102052       -0.5866016049       -2.8514878877
 C         -5.0776642287       -1.9090938880        0.4410463075
 O         -5.6965965834       -3.0872654666        0.2367659423
 C         -5.7362230223       -4.0318112408        1.2809416323
 C         -4.4432341275       -1.5164694503        1.6097100161
 C         -3.8150891134       -0.2828224420        1.6965543184
 C         -2.0617948503        2.0299865913       -0.5058594370
 C         -1.2868965192        0.7718186818       -0.6865598380
 C          0.0226528286        0.6662796275       -0.4095374130
 N          0.7872781172       -0.4791832153       -0.4897363093
 C          2.1886685878       -0.3720704148       -0.1322265417
 C          3.0593354024       -0.1034861929       -1.3730951000
 C          4.5090418400       -0.0214860947       -0.9873446965
 C          5.1588847055        1.1987971810       -0.8968088227
 C          6.4943951380        1.2676606646       -0.5312859204
 C          7.2071181652        0.1143188976       -0.2342384363
 O          8.5010667353        0.0611646200        0.1288029260
 C          9.2486793080        1.2539190341        0.1944543946
 C          6.5452080967       -1.1435044710       -0.3109828715
 O          7.3051361158       -2.2109667884        0.0022241618
 C          6.7424109594       -3.5004524560       -0.0493221034
 C          5.2125997528       -1.1868091188       -0.6885786588
 C          0.3429511795       -1.6437185797       -0.9348811780
 C         -4.1255047302        3.0630254590        0.6039693487
 C         -5.1394180226        2.9538564852        1.7405053663
 C         -3.5099389693        4.4593677089        0.5914967835
 H         -4.4658200560        0.8867845116       -1.3937679233
 H         -6.4351069058        0.3374053462       -2.5655285008
 H         -6.5405460470       -1.1348875690       -3.5607559285
 H         -4.9639392298       -0.3453383321       -3.3199826181
 H         -6.2649783012       -3.6416312547        2.1553935542
 H         -6.2797793074       -4.8859655485        0.8816344180
 H         -4.7298293314       -4.3470324166        1.5738132412
 H         -4.4350968670       -2.1658550708        2.4696690946
 H         -3.3528878622       -0.0032423120        2.6299199032
 H         -2.6273827506        2.2406122465       -1.4148792073
 H         -1.3880115618        2.8658893447       -0.3188831036
 H         -1.8587396593       -0.0807199660       -1.0161846187
 H         -0.0714743543        0.5856416131       -3.6926471044
 H         -1.4240270692        1.2050507015        1.9099687392
 H          0.5709538819        1.5355441004       -0.0766485577
 H          2.5088952599       -1.3033580964        0.3387477407
 H          2.3201896542        0.4382799934        0.5868378609
 H          2.7421578831        0.8290558853       -1.8409353758
 H          2.9070949692       -0.9136382569       -2.0889758290
 H          4.6299589351        2.1115206422       -1.1247608916
 H          6.9749955745        2.2307637013       -0.4815295926
 H          8.8435798028        1.9403381724        0.9439633474
 H          9.2883554204        1.7548413159       -0.7775918402
 H         10.2529411175        0.9527405278        0.4865226590
 H          7.5427717287       -4.1793141126        0.2377976354
 H          5.9113697695       -3.6034488867        0.6556441783
 H          6.4012728547       -3.7497738231       -1.0585526570
 H          4.7088805117       -2.1374167410       -0.7691380143
 H          0.1714291160       -0.1488843718       -3.7935359106
 H         -0.6684337568       -1.7571548065       -1.2676810467
 H          1.0082643787       -2.4850282131       -0.9558676752
 H         -4.6641781154        2.9221875063       -0.3406797744
 H         -4.6478859341        3.1231223309        2.6936178819
 H         -5.6094342300        1.9733699682        1.7545070320
 H         -5.9147708783        3.7046681199        1.6127148497
 H         -2.9407820111        4.6258038036        1.5003343844
 H         -2.8647827272        4.6104516015       -0.2695510765
 H         -4.3045977616        5.1987361885        0.5459868599
 H         -1.7076667320        2.7845766001        3.6141473032
