25
 energy: -42.137318839801 gnorm: 0.009452613178 xtb: 6.6.1 (8d0f1dd)
C            3.16297315708549        0.79112454466482        0.50743122552840
N            2.35610196831521        0.03424969074679       -0.48748245060394
C            2.63048334611270       -1.42028262225506       -0.40610074595645
N            1.45542282438531       -1.98274157396617       -0.19459408133771
C            0.40130519036686       -1.07816661454741       -0.13597657770374
C            0.92517320265126        0.17207096032176       -0.31602272736201
C            0.12200599894613        1.36453311595319       -0.31515734773159
O            0.53552164655745        2.49046397459970       -0.46134286908927
N           -1.22582963852762        1.05336847646616       -0.11443557729273
C           -2.17191916580528        2.15973271181291       -0.09486888158575
C           -1.78590647888756       -0.19544204937756        0.07491932876820
O           -2.95971156502417       -0.35827610008959        0.24565875895381
N           -0.90239954346292       -1.30609356730563        0.05958435685435
C           -1.44894674307325       -2.63443198453269        0.25953269419723
H            2.90589711529192        0.45416664855475        1.50883507096286
H            4.21990411474833        0.60779012289613        0.32585985785802
H            2.93998761998533        1.85312251655874        0.41052910708876
H            2.66766067021477        0.38758328635684       -1.41329729821780
H           -1.61625773733387        3.08149132645490       -0.25083504469960
H           -2.91375738546040        2.02591767106114       -0.88216032562457
H           -2.69075246841183        2.18663597664849        0.86321326650081
H           -1.03333801427041       -3.08894823926268        1.15940795445553
H           -1.25063787786469       -3.26601558192595       -0.60689415474194
H           -2.52671172967659       -2.52867531454442        0.38148026993267
H            1.36416300723643       -2.98493883368475       -0.08611219125270
