  72
        -99.39258932
 N         -1.9644015089        2.7081424460        2.4689556523
 C         -1.7417447308        2.0209614465        1.4435153712
 C         -2.8710215174        1.9037245329        0.4409737077
 C         -3.4362341703        0.4977819655        0.3869934094
 C         -4.4932531252        0.2242686835       -0.4834159459
 C         -5.0619906292       -1.0356488474       -0.5553874312
 O         -6.0811253005       -1.3860632400       -1.3653683711
 C         -6.6671225849       -0.4131973705       -2.1976652840
 C         -4.5621813725       -2.0752076603        0.2765065953
 O         -5.1705184742       -3.2700586978        0.1382467054
 C         -4.7761321125       -4.3394656902        0.9654849742
 C         -3.5214914170       -1.7914083718        1.1458286735
 C         -2.9647924399       -0.5185863117        1.2010965385
 C         -2.3759444643        2.3384824907       -0.9523678180
 C         -1.4725934183        1.2945467096       -1.6378519889
 C         -0.1229753813        1.2094726498       -1.0449564836
 N          0.4915681269        0.1008085005       -0.6648939362
 C          1.8742758022        0.1377511636       -0.2479564716
 C          2.8208404435       -0.2786916211       -1.3905807295
 C          4.2521217014       -0.1819064083       -0.9419513139
 C          4.9313378423        1.0239928442       -1.0109433820
 C          6.2485921620        1.1218431556       -0.5915912378
 C          6.9147342179        0.0123560097       -0.0904350252
 O          8.1925901183       -0.0121259776        0.3298087267
 C          8.9735037641        1.1563183722        0.2259351369
 C          6.2218860972       -1.2270498394       -0.0032736797
 O          6.9408745287       -2.2513672501        0.4962007969
 C          6.3512254032       -3.5258064915        0.5932962684
 C          4.9039358906       -1.2995545448       -0.4268574134
 C         -0.1229887471       -1.1996661471       -0.7828819799
 C         -3.9325612183        2.8578937678        1.0886968014
 C         -3.2989783285        3.2296179102        2.4576439300
 C         -4.2858709928        4.1123825516        0.2983908475
 H         -4.8850389836        1.0185378168       -1.0976200672
 H         -7.1019427602        0.4052724993       -1.6154561180
 H         -7.4584940061       -0.9296149126       -2.7374031315
 H         -5.9451861327       -0.0096330862       -2.9152081014
 H         -4.9070153501       -4.0978262400        2.0242065888
 H         -5.4292377965       -5.1689043955        0.7017498721
 H         -3.7356948133       -4.6255435280        0.7815768221
 H         -3.1357280903       -2.5553789141        1.8013072304
 H         -2.1757324149       -0.3264152223        1.9118084433
 H         -3.2325868659        2.5067997855       -1.6029601474
 H         -1.8331429072        3.2804545838       -0.8645313652
 H         -1.9747425908        0.3287365809       -1.6500951232
 H         -1.3524156707        1.6230584895       -2.6780379031
 H         -0.7771104591        1.5646695033        1.2859495948
 H          0.4311061661        2.1296931360       -0.9368371002
 H          2.0100962122       -0.5364521530        0.6014987230
 H          2.1294009694        1.1488596583        0.0746184900
 H          2.6537068656        0.3844836768       -2.2412967411
 H          2.5945077749       -1.2999696736       -1.6991201685
 H          4.4399075283        1.8990263258       -1.4083222191
 H          6.7525417971        2.0714491361       -0.6643865886
 H          8.5812829767        1.9581417738        0.8587907911
 H          9.0364318165        1.5046112655       -0.8092081684
 H          9.9658425370        0.8758689003        0.5734132892
 H          7.1234971402       -4.1747324129        1.0015737149
 H          5.4905686313       -3.5194316704        1.2697579928
 H          6.0445607050       -3.9017763421       -0.3876927766
 H          4.3734027827       -2.2374537524       -0.3751703818
 H         -0.2468611797       -1.4864091737       -1.8293622205
 H         -1.1028741656       -1.2035240375       -0.2997814845
 H          0.5059068776       -1.9383910670       -0.2927827099
 H         -4.8530473542        2.2933161791        1.2553448131
 H         -3.5334719309        0.2134967528        4.2547335616
 H         -3.8435736912        2.7917920354        3.2987313147
 H         -3.2530361198        4.3097152582        2.6209593667
 H         -3.4100002938        4.7236414202        0.1051052880
 H         -4.7605085322        3.8710076205       -0.6494635880
 H         -4.9907036020        4.7053500743        0.8768259833
 H         -2.9458982484        0.5852089336        4.6051168200
