25
 energy: 79.317473346435 xtb: 6.6.1 (8d0f1dd)
C            3.70743764808597        0.89581416795016        0.10317880069155
N            2.49149555824946        0.14269966657592       -0.07652029387196
C            2.60395890649260       -1.19370324033123       -0.30341480902064
N            1.37818285146777       -1.76821826532083       -0.30547013635143
C            0.40084480337580       -0.83058658462159       -0.11618439536091
C            1.05403424031255        0.43775321783065        0.00413062460592
C            0.29930576520005        1.55165769223411        0.18999815141968
O            0.08576601088971        2.71873005677941        0.27535718207577
N           -2.04288509209927        1.11408829567121       -0.08885137668795
C           -2.93305897354264        2.21185276939806       -0.12048947164821
C           -2.48719966265710       -0.04160764148131       -0.10794345648280
O           -3.35266616876982       -0.82275561715661       -0.15759224726145
N           -0.87564973667499       -1.08097019291801       -0.01127108226145
C           -1.16536894126939       -2.50100190042785        0.02010402243364
H            3.88651898255226        1.37134347965937        1.07239299640847
H            4.51600358701166        0.12199969918522       -0.11254618517350
H            3.77378500748360        1.78262486833923       -0.52123822423407
H            3.48896720229057       -1.76941072082981       -0.28409733446467
H           -2.26116116421415        3.09430208651247        0.01871756556797
H           -3.48128022834162        2.23819019795535       -1.07784473377342
H           -3.68942655721666        2.05256112337395        0.66034137533237
H           -0.74510886614792       -2.97521353279308        0.90698015293312
H           -0.76650232856811       -3.00174018538893       -0.86805136140817
H           -2.22597389256816       -2.65394048831968        0.12249084308657
H            1.21585341836602       -2.75218403063955       -0.26713952647137
