25
 energy: 79.231754315150 xtb: 6.6.1 (8d0f1dd)
C            3.81839831341099        0.80596466309212        0.17241116838532
N            2.63384959283197        0.03304299482337       -0.00500305803994
C            2.73289950378563       -1.30017493726117       -0.20985739785458
N            1.50641952565752       -1.86783527082174       -0.17885192696132
C            0.53550676761785       -0.89521937215980       -0.05419663675902
C            1.24198157919406        0.36840398516425        0.05852026228617
C            0.60023781762510        1.53237070668018        0.17481736915005
O            0.30365449755094        2.65645170872811        0.42964758781236
N           -2.51832761792484        1.13481500561927       -0.11374922953947
C           -3.23264150680083        2.33753645730114       -0.11113529837192
C           -2.98666245994391        0.03733895658251       -0.13701137843789
O           -3.54744701266793       -0.96780718750303       -0.17613738067098
N           -0.72460018046613       -1.06394091093371        0.01021465024443
C           -1.17426655111372       -2.44118422271820        0.10512571443556
H            3.70112390645298        1.63106330382934        0.90100540835786
H            4.53776243420129        0.02100686365384        0.45318689547435
H            4.16739516544276        1.42644866074284       -0.65611252545230
H            3.65215821591753       -1.81527701017199       -0.25302447228439
H           -2.48665039260286        3.14543970620989        0.04052765005641
H           -3.78083902029314        2.42395794143507       -1.05770539530316
H           -3.97807677752438        2.25848955752839        0.68399903153274
H           -0.64324376243403       -2.88119111597320        0.95189359259613
H           -0.89606972862370       -3.00212715777331       -0.79627356649086
H           -2.25937744348561       -2.46958822361592        0.26437992150530
H            1.32737212488929       -2.83787703335760       -0.34071511841421
