72
 energy: -99.390926110999 gnorm: 0.002916838124 xtb: 6.6.1 (8d0f1dd)
N           -1.35161507334650        2.70001155143139        2.02876155012511
C           -1.46291498374381        1.89734399787573        1.07607938144046
C           -2.69830101574078        1.77036780238276        0.22504659584665
C           -3.24195004815213        0.35651263932692        0.31835839647122
C           -4.24190305763971       -0.06013617098126       -0.56303789814460
C           -4.80282502307897       -1.32383756045702       -0.47706965628902
O           -5.76453285534752       -1.80699178021830       -1.28952615466474
C           -6.30920898695387       -0.97591168762365       -2.28737288897285
C           -4.36150350928614       -2.21750381060611        0.53717826765603
O           -4.97380400544559       -3.41723575611917        0.55809577245770
C           -4.67527354491048       -4.32217650883905        1.59563048593663
C           -3.36942185319006       -1.79657843841989        1.40886865517004
C           -2.81707940854211       -0.52773060455788        1.29859191192115
C           -2.26890605366175        2.11738671805691       -1.23145007869038
C           -1.68600170436937        1.00247562729415       -2.11238809765196
C           -0.18046138334878        0.73306465007993       -1.99819359347926
N            0.24224266473033       -0.12864422995714       -0.90685960925185
C            1.56478648108195        0.11678383349442       -0.37488300043348
C            2.65422885647338       -0.38700766699714       -1.34440043871295
C            4.03118504466265       -0.11293250527195       -0.80966472806598
C            4.62471145493870        1.12543919040996       -1.00083756245190
C            5.90612794000518        1.37812579417262       -0.53801822427779
C            6.62282912715254        0.39451928666511        0.12950764740968
O            7.87738498824575        0.51846010403321        0.59725050311767
C            8.58417219550794        1.71572052214002        0.36605918853290
C            6.01439516237357       -0.87315476450818        0.34895177108927
O            6.77665791743761       -1.76730796686544        1.00696956023710
C            6.27995460288002       -3.06505205833239        1.23329705331937
C            4.72994498665443       -1.10097614134950       -0.12090839475217
C           -0.37160104898016       -1.26860262110063       -0.63535963646515
C           -3.84005871835974        2.73869985618015        0.66367309256836
C           -4.33923661634580        2.42315657816828        2.07170415403093
C           -3.45289630685562        4.21264655542914        0.57597955722531
H           -4.59692916057794        0.62248475299304       -1.31751629908602
H           -6.77792346868171       -0.08598523714155       -1.85687670497267
H           -7.06786459911998       -1.57687510836557       -2.78483318506515
H           -5.55169450209052       -0.67447404582476       -3.01825372919665
H           -4.88194888433152       -3.88666192890991        2.57769040661405
H           -5.32941947626191       -5.17684639645407        1.43480763474851
H           -3.63238515090675       -4.65180476851601        1.55381848164366
H           -3.02525935912460       -2.44861232141258        2.19500602745396
H           -2.07260589703639       -0.22498457792028        2.01812010609994
H           -3.15756061765546        2.48672339777722       -1.74500660288211
H           -1.56167291961259        2.94796626761733       -1.19080625253876
H           -2.24711338044811        0.08169949444094       -1.96507761201122
H           -1.84662681920057        1.31196216894498       -3.14700823708428
H           -0.65323426649043        1.23096176113347        0.75153204298502
H            0.34324250511041        1.68588825137319       -1.88465711266241
H            1.67100291873551       -0.39925140522470        0.58184782894049
H            1.70001525989655        1.18863682949967       -0.20858613265059
H            2.53654371474430        0.11758533925855       -2.30449384864680
H            2.51545907932895       -1.45850420042804       -1.49752963679979
H            4.09639868541394        1.90211837910499       -1.53281405813568
H            6.34543987932230        2.34642842868200       -0.71283914059349
H            8.10644931239613        2.56586293594171        0.86219243888803
H            8.67997610768971        1.92277451517551       -0.70399063241208
H            9.57261819212525        1.55806157780010        0.79317231730934
H            7.07526512403686       -3.59552749962414        1.75317794574485
H            5.38512295266873       -3.04809743150944        1.86351839975362
H            6.05709098651812       -3.57861107977699        0.29292529736561
H            4.26610532326455       -2.06370584721808        0.02601290911607
H            0.14574086453836        0.27656919494888       -2.93897804828706
H           -1.26735046530631       -1.55004131653083       -1.14979066467235
H            0.02086886815579       -1.90883665139919        0.13049648715104
H           -4.67192648312261        2.56529503474948       -0.02947899936063
H           -3.54858155953389        2.59321340710247        2.79569171683542
H           -4.67556567505667        1.39192327699961        2.14936178122163
H           -5.17491905409181        3.07384505653610        2.31541825047179
H           -2.62177432931264        4.42142710991342        1.24200948447124
H           -3.18329654447078        4.50476491156920       -0.43521176968385
H           -4.29880466272609        4.82160218757757        0.88435582239234
H           -0.46549312664046        2.72623062466242        2.52382454786720
