  72
        -99.36059889
 N         -1.2071751852        2.1494677187        2.5647817471
 C         -1.1235869836        1.4369183784        1.5406080238
 C         -2.1421118516        1.4503710932        0.4250585614
 C         -2.5494322324       -0.0498850418        0.1417215760
 C         -3.7726029847       -0.1774965626       -0.6964850867
 C         -4.8037676978       -1.0178135437       -0.4098589053
 O         -5.9286262608       -1.1665080974       -1.1408729244
 C         -6.1125683876       -0.3754274863       -2.2923482009
 C         -4.7583902744       -1.8549721461        0.7603303234
 O         -5.8069696278       -2.6540791318        0.9345040345
 C         -5.8779893108       -3.4965754290        2.0648752822
 C         -3.6485618858       -1.7498534048        1.6171563267
 C         -2.6300298355       -0.8854932229        1.3633094903
 C         -1.3566744192        2.0678825634       -0.7368390817
 C         -1.5106320355        1.7479788863       -2.1962432462
 C         -0.2238231377        1.4083047992       -1.5105604998
 N          0.1791006301        0.0493172024       -1.2750630729
 C          1.5130715949       -0.0584624873       -0.7105838519
 C          2.6580751171        0.0373904743       -1.7448330893
 C          3.9994171258        0.1059808933       -1.0777259299
 C          4.6821681172        1.3089223641       -0.9645152576
 C          5.9364593345        1.3650951710       -0.3780268295
 C          6.5346554087        0.2165555045        0.1226779031
 O          7.7489216079        0.1479665401        0.6957605595
 C          8.5418054509        1.3102027138        0.7769980801
 C          5.8332067669       -1.0199956772        0.0336607887
 O          6.4798670005       -2.0809194592        0.5528387479
 C          5.8795472613       -3.3528829265        0.4962841447
 C          4.5842274443       -1.0513410291       -0.5669863613
 C         -0.0692222771       -0.8968759401       -2.3509127809
 C         -3.4046394932        2.3058109392        0.7368037444
 C         -4.1614965105        1.7796334654        1.9545141233
 C         -3.1111511118        3.7923335808        0.9459690717
 H         -3.8374936295        0.4434752976       -1.5728406885
 H         -6.1188478402        0.6913891110       -2.0493080763
 H         -7.0853209263       -0.6595039538       -2.6885669684
 H         -5.3439470359       -0.5775826267       -3.0447816405
 H         -5.9168782746       -2.9155407000        2.9905933567
 H         -6.8029274438       -4.0588087819        1.9519047107
 H         -5.0332124012       -4.1898093563        2.1006995037
 H         -3.6159593784       -2.3527202413        2.5111788876
 H         -1.8087823472       -0.8317753423        2.0596951327
 H         -1.6799427866       -0.4208267800       -0.4292200611
 H         -1.1523511355        3.1101265923       -0.5254441023
 H         -2.1466373932        0.9365032634       -2.5005101750
 H         -1.5108309444        2.5697487548       -2.8968183921
 H         -0.2767383839        0.7717438735        1.3218074646
 H          0.6114568901        2.0742435982       -1.7209932917
 H          1.5827148675       -1.0188286117       -0.1905322307
 H          1.6381245724        0.7387673359        0.0262274652
 H          2.5103381909        0.9288283712       -2.3569260759
 H          2.6235647851       -0.8368248158       -2.3965047653
 H          4.2449180062        2.2157542768       -1.3537905321
 H          6.4475371814        2.3122851120       -0.3216705211
 H          8.0654159121        2.0787598646        1.3929792099
 H          8.7559258232        1.7176773376       -0.2155308627
 H          9.4719923707        0.9966404021        1.2470575913
 H          6.5865424002       -4.0309731194        0.9703658701
 H          4.9333263940       -3.3741519263        1.0462408452
 H          5.7103387403       -3.6709542927       -0.5370102273
 H          4.0560680215       -1.9872808856       -0.6606076184
 H          0.3929495772       -0.5964504257       -3.2971880166
 H         -1.1396491988       -1.0097079551       -2.5185879114
 H          0.3268161897       -1.8664751208       -2.0536200284
 H         -4.0614270443        2.2197773534       -0.1360775279
 H         -3.5218888191        1.8088615956        2.8311716387
 H         -4.5144928706        0.7652691714        1.8004173040
 H         -5.0270678397        2.4095495532        2.1430738535
 H         -2.3623421649        3.9248920107        1.7203179804
 H         -2.7823362780        4.2781285672        0.0314937996
 H         -4.0231589732        4.2891308464        1.2667907535
 H         -0.4478636432        2.0984982189        3.2370481833
