25
 energy: 38.376049599092 xtb: 6.6.1 (8d0f1dd)
C            3.59224278138904        1.77651160388968        0.08482647439498
N            2.82927966549767        0.54025084480144        0.05106274993517
C            3.29118041406671       -0.70537888163142        0.07659526980379
N            2.26910302877147       -1.58601254607130        0.04528484037822
C            1.08536416711252       -0.87468720118957        0.00434079421716
C            1.46028100415086        0.47324418044657        0.00838876758923
C            0.43775468388193        1.48598792766389       -0.01194291092054
O            0.64275381857497        2.69314199480353       -0.00443144307486
N           -0.81593159646330        0.92085719447951       -0.03855289846614
C           -1.94988888870180        1.82262604410382       -0.05736680311209
C           -1.14387062705112       -0.47372335059378       -0.05457899809962
O           -2.31324017969350       -0.77311217842362       -0.08500221038389
N           -0.12140218090822       -1.36261884897716       -0.02903168491746
C           -4.20422691722022       -3.79954827489701       -0.12354783960999
H            4.24602957448879        1.81921737105920        0.95696512444327
H            4.22040438495456        1.88949213173971       -0.80013231073359
H            2.90012306500425        2.61893297612008        0.10364521979418
H            4.32713920231395       -0.98117585307590        0.10683138371566
H           -1.54677708897673        2.83159101642508       -0.03108994549284
H           -2.54729560630513        1.66175358673408       -0.95690940906654
H           -2.57951413154454        1.64515115895633        0.81214009345586
H           -4.44708807104087       -4.26090538400228        0.79642525171048
H           -4.38541192211690       -4.24886134966020       -1.05968576879423
H           -3.73154222464683       -2.85756001167565       -0.11211376233561
H            2.31527825537828       -2.59275577077182        0.05712029855724
