25
 energy: 3.870910102665 xtb: 6.6.1 (8d0f1dd)
C            3.26561059818799        1.28279735012807        0.10694074403164
N            2.38233208760762        0.12864792368903        0.02083911422157
C            2.70213440026151       -1.23526776994880        0.03718524078518
N            1.52482878538258       -1.94712645627405        0.01813460389680
C            0.45784524180003       -1.12288011743029       -0.01716764955107
C            0.97405692524390        0.19261079306557       -0.01302825421198
C            0.14346412472913        1.33172843637166       -0.03147069843735
O            0.45642325068677        2.52894631749798       -0.04446136830801
N           -1.24264815456373        0.96065226191290       -0.04195672849056
C           -2.19034229875092        2.06541670767913       -0.04921863312746
C           -1.77266783776616       -0.28521357220215       -0.06072456960633
O           -2.98188691123507       -0.44287326978825       -0.08098469250907
N           -0.91242031916096       -1.42223928115439       -0.05024614877498
C           -1.73393172360758       -2.65304762533374       -0.06343874516261
H            3.81926861477172        1.31272334388462        1.05389946796103
H            4.00498271443113        1.32982199232356       -0.70856218663320
H            2.65144141961691        2.19378164331757        0.06738586787702
H            3.67038313977020       -1.69884046931812        0.06260424445715
H           -1.59737362423845        2.98182416137393       -0.02552485174891
H           -2.79888485899233        2.02251342006307       -0.95161441329830
H           -2.83726068259186        2.00110212525884        0.82465828021692
H           -1.61901691756866       -3.26492195779453        0.83170201225135
H           -1.58660196487262       -3.25835037355965       -0.95833158574434
H           -2.75138445118306       -2.29789709313266       -0.07941169619445
H            1.46176770221810       -2.94995511506330        0.03735912601198
