25
 energy: 58.523614798931 xtb: 6.6.1 (8d0f1dd)
C            3.33748371973840        1.71441445353253        0.12888742922447
N            2.67604035852979        0.36148459105777        0.00282365464000
C            3.09755501414409       -0.91756015863626        0.07026816949051
N            2.05119335206366       -1.79064380291667        0.05504697121783
C            0.86566912027873       -1.08019967375444       -0.02644816881661
C            1.30718775327590        0.25778046812144       -0.06886880940822
C            0.35471430961571        1.31249335958017       -0.10954921169831
O            0.62417709670464        2.50842605569812       -0.13809380920958
N           -0.92104562094716        0.81535890002944       -0.09581999226713
C           -1.94606092169359        1.85811374015732       -0.05085020509227
C           -1.33474684074884       -0.54870276491674       -0.08041218418602
O           -2.54189042274591       -0.61954067280211       -0.08523969081616
N           -0.36555259229263       -1.56423435102539       -0.05016610587269
C           -3.38592824380120       -3.23677775049752       -0.08790337598679
H            4.21653837458081        1.65200512250148        0.76447815188409
H            3.65021918703030        2.24767798789274       -0.79172668973779
H            2.64801745643975        2.44872104624399        0.57334146501234
H            4.11141306963142       -1.28746276553208        0.12846912085316
H           -1.33737765079334        2.75475046341998       -0.04325565042301
H           -2.58348550292136        1.82911874967930       -0.92897570529380
H           -2.56521657659290        1.78164500022175        0.84421067777292
H           -3.41708630643289       -3.72153782735774        0.83747828349848
H           -3.33596755627912       -3.77043158899794       -0.98373528797450
H           -3.62487940395508       -2.21009420911233       -0.12231489031010
H            2.06875788613432       -2.80759089377380        0.12540093462258
