25
 energy: 39.989450411207 xtb: 6.6.1 (8d0f1dd)
C            3.55893383808001        1.78469914613681        0.09232488120041
N            2.81778488475590        0.51714106837594        0.04429903518865
C            3.27342730519710       -0.73451691514914        0.07900737836129
N            2.25285202768412       -1.61635956343668        0.04778809510338
C            1.06070362908549       -0.90844291209516       -0.00073897886252
C            1.44496951863925        0.43974770543874       -0.00449812428165
C            0.42892185187830        1.45521461313000       -0.02620086389538
O            0.63441718267131        2.66265640165709       -0.02347549518683
N           -0.82497132590300        0.89024605354483       -0.04570855647886
C           -1.94592188561535        1.80763375851635       -0.05953152949875
C           -1.16693946791012       -0.49994791433113       -0.05900008713761
O           -2.34501096867237       -0.76655799753012       -0.08754485078728
N           -0.14781736192868       -1.40424858812074       -0.03170766497785
C           -4.04584118183235       -3.73105280758196       -0.11765366981486
H            4.27365286639499        1.81821956693262        0.91815142148473
H            4.13283598783056        1.98046440428950       -0.81757309999110
H            2.84589479461409        2.60388030714091        0.18973665642620
H            4.30414489707733       -1.03254025447486        0.10986519763783
H           -1.51933126375375        2.80556925327201       -0.03830991424208
H           -2.55198942068364        1.67521642780680       -0.95430240644634
H           -2.56671477363332        1.65928688708443        0.82035722801907
H           -4.32164933841983       -4.16256275311221        0.80595298766052
H           -4.24681516109571       -4.17065212413926       -1.05402390895977
H           -3.68821614473178       -2.74313395526877       -0.11498395775854
H            2.27903468900544       -2.62334156576148        0.06979293562504
