  25
        -42.09102837
 C          3.5263527924        1.1622712118        0.7189277108
 N          2.5012429913        0.3904662624        0.0459736293
 C          2.7584181140       -0.9152816168       -0.3029014565
 N          1.8788394719       -1.6176964041       -0.8690885486
 C          0.1294211217        0.5447087880       -0.8401916349
 C          1.3045919160        0.9360017144       -0.2142452514
 C          0.7061028446        2.2443122641        0.0977771979
 O          0.9185740919        3.2897403489        0.6080651876
 N         -0.5317892794        1.7456029289       -0.5788350377
 C         -1.6990539626        2.2319473785       -0.7767194679
 C         -2.6560018448       -1.8425542064        0.3375448294
 O         -2.3192594405       -0.7614712918        0.0627551568
 N         -2.8410336813       -2.9450720105        0.7135425579
 C         -3.5136968160       -4.1720212893        0.8030605877
 H          3.7813772432        0.7005473862        1.6741063249
 H          4.4246123501        1.2096013264        0.1015732577
 H          3.1715986201        2.1734578713        0.9013284109
 H          3.7683642961       -1.2366062407       -0.0313060029
 H         -1.9131625821        3.2298791444       -0.4273208300
 H         -0.2504308445       -0.3279028370       -1.3272194700
 H         -2.4610761033        1.6500192767       -1.2695440068
 H         -3.3299070893       -4.5896822291        1.7939073073
 H         -3.1226822738       -4.8598733215        0.0501501882
 H         -4.5882603285       -4.0453344373        0.6568438898
 H          2.1289535395       -2.5706756078       -1.0981938109
