25
 energy: -42.511214203710 xtb: 6.6.1 (8d0f1dd)
C            3.27768071785448        1.94462318702947        0.12763488624716
N            2.42168448059919       -0.22010141630757        0.07569773958005
C            2.60123338365991       -1.49526615756192        0.08955622896935
N            1.40806842002380       -2.19084657881291        0.01738502862730
C            0.41757807590604       -1.25670227105812       -0.01200360539070
C            1.05287146198515       -0.01724556937567        0.01328506558798
C            0.23608895489191        1.18198770577768       -0.02597410134598
O            0.57642431192854        2.34395642355262       -0.06851560598335
N           -1.16009351994667        0.92838065056992       -0.03515154511768
C           -2.03675582632348        2.09575911687700       -0.04276731883122
C           -1.76914002368708       -0.28447608896208       -0.05885985562810
O           -2.97438944126849       -0.39285325852021       -0.09019848972619
N           -0.93917124621395       -1.42326219907486       -0.05059508357206
C           -1.64690081359798       -2.68150450115333       -0.06769720751183
H            3.71042539097368        2.07938946005917        1.06511316465579
H            3.83643045258701        1.90522973511243       -0.75162232867019
H            2.25752351377616        2.25805635351925        0.04514673342229
H            3.54801286570158       -2.00931136985997        0.04830791578219
H           -1.40881756516890        2.97733415001360       -0.02617346184705
H           -2.63141654366146        2.11471586680606       -0.94868348993435
H           -2.67966794138542        2.10020899824459        0.83464556756368
H           -1.43612362974810       -3.26749178479544        0.82701738027798
H           -1.41125053085138       -3.25599815411694       -0.96318371965163
H           -2.70602707679680       -2.41237936389838       -0.08101419814305
H            1.32149902421751       -3.19201020896109        0.00754677427691
