  25
        -42.07535841
 C          3.1422312311        1.0210711571        0.4740926333
 N          3.2044434654        1.5496054794       -0.7941183711
 C          2.2666361878       -0.2090149985        0.4558828668
 N          0.7651920464       -2.5985620310       -0.2732899201
 C          0.2246913570       -1.4777482041       -0.0343908099
 C          0.9573581668       -0.2077884556        0.1347369870
 C          0.1937977705        1.0541461856       -0.0183210541
 O          0.7363266972        2.1346351502       -0.1014053460
 N         -1.1722605051        0.9326771138       -0.0014255059
 C         -1.9834086812        2.1356470130       -0.0685986084
 C         -1.8823797215       -0.2625353314        0.0893049448
 O         -3.0808650582       -0.2644489384        0.1790344708
 N         -1.1411817703       -1.4312878667        0.0413319517
 C         -1.8604948912       -2.6857579629       -0.0163191890
 H          2.7529374797        1.7406371238        1.2201245942
 H          4.1568953816        0.7121283244        0.7774910063
 H          2.8280576220        2.4607880260       -1.0190938916
 H          2.7652915361       -1.1449910855        0.6681144778
 H         -1.3251741173        3.0014236467       -0.0568698209
 H         -2.5802471284        2.1299804355       -0.9823218993
 H         -2.6695747374        2.1638992432        0.7793174507
 H         -1.5971063600       -3.3055471456        0.8425079325
 H         -1.5774488316       -3.2268873702       -0.9211917116
 H         -2.9295094405       -2.4792267927       -0.0124614693
 H          1.7641378468       -2.7020427061       -0.3607120018
