25
 energy: -3.219791473180 xtb: 6.6.1 (8d0f1dd)
C            3.29300743935011        1.14995759935670        0.09259528258759
N            2.33328878944018        0.09786091402710        0.03218273191189
C            2.61852142332655       -1.25641839801829        0.02293378044561
N            1.42558596140497       -1.94304236039444       -0.02043813834777
C            0.42121431088743       -1.04413792829999       -0.00680488113705
C            0.93817634496801        0.24596001752055        0.02718445632324
C            0.11557902573587        1.40828189874944        0.02239018089147
O            0.51434034808171        2.57686328317545        0.03387364673134
N           -1.31637002884585        1.10499188433768       -0.01712748490581
C           -2.35241060247945        2.17190915008795       -0.06886235781857
C           -1.81482130968391       -0.16469450379360       -0.02471889017357
O           -3.00749347298334       -0.39680214410001       -0.03962211746662
N           -0.92052155463140       -1.26512221246250       -0.02117646532060
C           -1.44514779821328       -2.61771510421820       -0.05318791453340
H            3.76645896452154        1.19359271670797        1.07804056783825
H            4.06837756337376        1.00034326974797       -0.66396003088247
H            2.76982972559184        2.08348423201310       -0.08727507062307
H            3.59167202107611       -1.68790143165883        0.02750128350997
H           -1.84574003721103        3.13756653930590       -0.04955517029618
H           -2.96763741683013        2.10174033130525       -0.96783041710744
H           -3.02960434471171        2.10808413937734        0.78377595034009
H           -1.13092543196485       -3.18161778410634        0.83011756097917
H           -1.11754485683780       -3.15075002017699       -0.95111967759980
H           -2.53104123792858       -2.53897052628770       -0.06141346693295
H            1.34709524440173       -2.94780377706244       -0.04473761551464
