25
 energy: 33.700386550494 xtb: 6.6.1 (8d0f1dd)
C            3.41352286894308        1.07316044084836        0.10734069458392
N            2.42135132442072        0.05409270258074        0.00625233387139
C            2.68397131672693       -1.30919824075627       -0.00624453644545
N            1.48299802706625       -1.96771710314227       -0.05266644915932
C            0.49295885464109       -1.04546344655845       -0.02539223417349
C            1.01541309112244        0.24217117685350        0.02199703005375
C            0.19602092923894        1.43399423330870        0.03944828348364
O            0.64991256218763        2.56993383573160        0.11463982000034
N           -1.36755289504247        1.22670969247930       -0.02439106223939
C           -2.70099646856712        2.26884085664613       -0.12341694192366
C           -1.78186764977938       -0.07276063101259        0.00464775931605
O           -2.95188621795461       -0.39439996093585        0.03608423402226
N           -0.85460185438797       -1.20214420663140       -0.01031504241768
C           -1.37888219000333       -2.56666031287146       -0.03361773723344
H            3.86696650803526        1.10562223899536        1.10220145266079
H            4.20281632714918        0.88693733669728       -0.62720603171911
H            2.94908473688045        2.03250836075001       -0.07847779913788
H            3.63520475065042       -1.78892707445533       -0.05488121624633
H           -2.29294418595899        3.28096138050726       -0.11977696783666
H           -3.32407828965629        2.12301505518223       -1.01829984805540
H           -3.40614893030522        2.17229067238724        0.70575140484502
H           -1.03218472789432       -3.14198622303070        0.83307284117991
H           -1.05855109853663       -3.09444624173959       -0.93923613261962
H           -2.46590584599676       -2.52095132271567       -0.01655483510859
H            1.41480847860194       -2.97275882094887       -0.11033493936957
