25
 energy: 6.876821342980 xtb: 6.6.1 (8d0f1dd)
C            3.34221055204485        1.12138976477366        0.09761256170944
N            2.36701864379002        0.08404273795174        0.02298699605344
C            2.64117021082147       -1.27825344203918        0.00713725834278
N            1.44228508263231       -1.95112604360544       -0.04381175749117
C            0.44771042787562       -1.03746343191913       -0.00900780741007
C            0.96420648834588        0.25188106962386        0.03148625620544
C            0.13388143702995        1.42636600140017        0.04122974654174
O            0.56029840614074        2.58018534735517        0.07759490233275
N           -1.35947772928934        1.16650524037920       -0.01232380899020
C           -2.48833960341141        2.20499093971733       -0.09399814997424
C           -1.80759749790736       -0.12608610364430       -0.00415032975104
O           -2.99099148871140       -0.40311159062659       -0.00591371164372
N           -0.89840368847636       -1.23176548495583       -0.00656468127925
C           -1.41765478751262       -2.59473619354353       -0.04497348836526
H            3.80850138154333        1.16136811450862        1.08659500200659
H            4.12279007608301        0.95567454608029       -0.65114410320926
H            2.84372338308420        2.06632736365988       -0.08451847275561
H            3.60616099364622       -1.73155925506782        0.00361413640881
H           -2.02749364793141        3.19529991440803       -0.07728169529703
H           -3.10967980209546        2.09938401847715       -0.98989467033735
H           -3.18138033126602        2.12841762553407        0.74692780292372
H           -1.09019721862033       -3.16543895849122        0.83043984489233
H           -1.09108160913726       -3.12773729364847       -0.94505111991551
H           -2.50431645604772       -2.53427620371956       -0.04526575249450
H            1.35829461753939       -2.95683203610632       -0.08621161871104
