25
 energy: 55.079282454388 xtb: 6.6.1 (8d0f1dd)
C            3.60331802808370        0.88980446772192        0.11361106559746
N            2.60658244354671       -0.14921981883240        0.03806187680227
C            2.84057945612113       -1.44787147650062       -0.02815869137860
N            1.67232020327167       -2.13240341305399       -0.05294175112401
C            0.64674709715758       -1.20830870726268        0.00418040033064
C            1.25090893303388        0.04429022966537        0.06948248826290
C            0.43314041403532        1.28306920340634        0.08319908699024
O            0.96049162822783        2.38404694797891        0.10758863774805
N           -0.89023637933670        1.04388682915991        0.07435100610176
C           -3.81466683863975        3.05998996036003       -0.17410096194399
C           -1.53119043173425       -0.08309154800837        0.03660213911255
O           -2.70722663419869       -0.31669628894584        0.02023958213148
N           -0.65400098993155       -1.39969951035349        0.00117227187377
C           -1.27950478555748       -2.69388473612382       -0.03473420751998
H            4.01445216758878        0.94162867700709        1.12460768115905
H            4.41452304473005        0.68374486962085       -0.58524881530694
H            3.12661458818455        1.84506210538163       -0.11825824912536
H            3.80512701069005       -1.90293330852731       -0.06345175491362
H           -3.12347653754387        3.87628302014788       -0.15518169694254
H           -4.19945614324601        2.71264772209351       -1.11060168733794
H           -4.29762657086713        2.75183714055601        0.72916358756813
H           -1.00212942939908       -3.30411803029484        0.83108234642288
H           -1.03834499396225       -3.23899049483625       -0.95328433106298
H           -2.35148837296921       -2.50696150809458       -0.00657418456069
H            1.57570446950202       -3.13446408948817       -0.11213301205265
