25
 energy: 56.593803062179 xtb: 6.6.1 (8d0f1dd)
C            3.59948734477302        0.88953590257582        0.13146642773460
N            2.58561514121227       -0.13176122950696        0.03399283764497
C            2.83304238779972       -1.44022876945719       -0.04702446794792
N            1.65215774001820       -2.11294075898253       -0.06122194816739
C            0.63787256358424       -1.17635032636615       -0.00203685752817
C            1.23959369930024        0.07687942561511        0.04327839675215
C            0.41338081052446        1.31371726827769        0.08774559537950
O            0.94028020841784        2.41170161546699        0.14193490956451
N           -0.91493738838738        1.09173232713412        0.06582591332718
C           -3.70348622298670        2.83219897596395       -0.17022902400502
C           -1.56503019591061       -0.02520570892783        0.03797613600700
O           -2.72973475870912       -0.30586919811644        0.04945875455733
N           -0.66394562610466       -1.33871366190270       -0.00652508124438
C           -1.28745456613805       -2.62950074171570       -0.03393549722663
H            3.99099426258512        0.91183233689480        1.14906078345840
H            4.39911546160510        0.62396741440098       -0.55721494138862
H            3.24013054355016        1.88173762524310       -0.11271324305779
H            3.79074623851010       -1.90863766646720       -0.06872889282514
H           -3.07499256704662        3.68045965219196       -0.15645067997587
H           -4.06520930492083        2.48169268725137       -1.10675820432112
H           -4.18235971808679        2.53511659475755        0.73103525921230
H           -0.97631964642346       -3.21591318536906        0.83543919851880
H           -1.03023247986209       -3.16356952646568       -0.95426481029796
H           -2.36771390690923       -2.47344675932228        0.00430982582715
H            1.56779658133719       -3.12009453998465       -0.10067533594668
