25
 energy: 56.126871082039 xtb: 6.6.1 (8d0f1dd)
C            3.61544073887639        0.86943630819167        0.13104629916555
N            2.60088350143549       -0.15096731295095        0.04209026035530
C            2.84931069856160       -1.45891008947192       -0.03938248306447
N            1.66668493139995       -2.12669752960492       -0.05920725049274
C            0.65195715580834       -1.19317068536574       -0.00142267623712
C            1.25562418255316        0.06077459792326        0.04877925868478
C            0.42482145084083        1.29808961951659        0.09075736145715
O            0.94947345018078        2.39868248084528        0.13582486644670
N           -0.89359809345033        1.06983745613248        0.07268657768979
C           -3.77656283952150        2.90113686010985       -0.17498898328927
C           -1.55302606841603       -0.03967017036029        0.03848395218205
O           -2.71888886036121       -0.30372082632226        0.04430957652340
N           -0.65160141095163       -1.35818763302570       -0.00526776476852
C           -1.28311903256882       -2.64357311728185       -0.03419343031882
H            4.00773114425059        0.89359239964474        1.14822267903264
H            4.41534484359805        0.59526099243062       -0.55414471178846
H            3.24101525052061        1.85381603149126       -0.12232048569064
H            3.80933880390484       -1.92459279916614       -0.06528449155659
H           -3.14165654064213        3.74995219049924       -0.15681072905541
H           -4.12787045739119        2.53740078936388       -1.11279875897825
H           -4.25084341479966        2.59438006251542        0.72754652544841
H           -0.98114717240585       -3.23556986291024        0.83548452299338
H           -1.03224765178062       -3.18019639811611       -0.95486663734555
H           -2.36081843519635       -2.46580736795202        0.00136896645329
H            1.55712971842455       -3.12774507934563       -0.10422972155941
