  25
        -42.01302249
 C          3.6386742881        0.7766212539        0.5069047889
 N          2.5328385814       -0.0198982148        0.0794406552
 C          2.4126275713       -1.3899609002        0.5098496191
 N          1.3450435446       -2.0349787041       -0.2336860424
 C          0.4617704438       -1.0699582420        0.0648168714
 C          1.4128888932       -0.3296737383        0.9456484859
 C         -1.2716394985        2.0420241675       -0.8312342237
 O         -1.3982859913        2.6061994368       -1.8239251642
 N         -1.1124554984        1.2813384312        0.1581980894
 C         -0.7048487204        1.7283875410        1.4942906715
 C         -1.7532613621       -0.0834679503        0.0435054388
 O         -2.9440595637       -0.1645829251        0.0589084403
 N         -0.8670742899       -1.1058410151       -0.1647079410
 C         -1.4421382633       -2.3715207570       -0.6281088740
 H          3.9813149107        0.5339035821        1.5185463184
 H          4.4600384520        0.6188029477       -0.1913509793
 H          3.3439004727        1.8241381581        0.4739854037
 H          3.1824166275       -1.9430788685        1.0117999381
 H         -0.3664949006        2.7611352959        1.4505198147
 H         -1.5542836986        1.6481725932        2.1722923196
 H          0.1179702007        1.0821661919        1.8282515855
 H         -1.0528022392       -3.1933044743       -0.0265276989
 H         -1.1998080690       -2.5301305014       -1.6808834891
 H         -2.5239506819       -2.3236394899       -0.5146882945
 H          1.3412781448       -2.8062253898       -0.8827244525
