  72
        -99.31734056
 N         -1.2828579842        1.3788448087        2.0910203675
 C         -1.6119148370        2.1498881437        1.1467299684
 C         -2.8957586529        2.0608999416        0.3671490170
 C         -3.6520297429        0.7569133946        0.4880439270
 C         -4.3357287377        0.2547123588       -0.5536144308
 C         -4.8101182287       -1.0216787622       -0.6693771771
 O         -5.7195485926       -1.4604944999       -1.5364087276
 C         -6.4049691127       -0.4712764101       -2.2740659957
 C         -4.2212048499       -2.0101842651        0.2361473907
 O         -4.3113182523       -3.2957483414       -0.1622232302
 C         -3.9360763555       -4.3041635136        0.7485800948
 C         -3.7701237455       -1.5360150912        1.4209802362
 C         -3.6639817665       -0.0794106446        1.7373953323
 C         -2.5350076101        2.2678653851       -1.1221554207
 C         -1.5954526943        1.1702995909       -1.6479224768
 C         -0.2906536443        1.1691918803       -0.9542071536
 N          0.2634355784        0.1301348765       -0.3437083365
 C          1.6615935949        0.1648808057        0.0135135425
 C          2.5319501947       -0.4450376173       -1.1033622668
 C          3.9931098518       -0.3023151626       -0.7834589247
 C          4.6314907641        0.9163237412       -0.9515064811
 C          5.9787663390        1.0589118465       -0.6598537659
 C          6.7183699167       -0.0192031842       -0.1952826835
 O          8.0308427317       -0.0000273679        0.1050509374
 C          8.7613191527        1.1895482883       -0.0855815099
 C          6.0715924354       -1.2724212035       -0.0150913927
 O          6.8636966149       -2.2674405452        0.4323974931
 C          6.3245836530       -3.5578858445        0.5918940742
 C          4.7210982916       -1.3884614339       -0.3055846080
 C         -0.4385741312       -1.1153800292       -0.1596389111
 C         -3.8331686566        3.2427598805        0.8138296286
 C         -4.4890605884        2.9760777770        2.1666151911
 C         -3.1288711521        4.5989375450        0.8757594554
 H         -4.4559690404        0.1934914894        2.4421569926
 H         -7.1141048943        0.0647295551       -1.6374697604
 H         -6.9401591956       -0.9886699516       -3.0669290821
 H         -5.6955406453        0.2482809472       -2.6950686770
 H         -4.5719962035       -4.2922767314        1.6382108542
 H         -4.0699520002       -5.2456050940        0.2201626654
 H         -2.8885986391       -4.1970224966        1.0485957266
 H         -3.5061683419       -2.2062126779        2.2232131627
 H         -2.7182260208        0.1314488201        2.2538678321
 H         -3.4535989000        2.2500705590       -1.7082025966
 H         -2.0574898622        3.2369925991       -1.2599411559
 H         -2.0924174620        0.2056368326       -1.5760681362
 H         -1.4138084766        1.3816986356       -2.7081580569
 H         -1.0037062788        3.0104323541        0.8483742908
 H          0.3281368623        2.0487101825       -1.0516608132
 H          1.8126242736       -0.3894364913        0.9423085287
 H          1.9687862087        1.1996821192        0.1780262910
 H          2.3072000359        0.0766509802       -2.0364135679
 H          2.2765938462       -1.4977337902       -1.2278977345
 H          4.0834400096        1.7664699891       -1.3288827054
 H          6.4484554167        2.0175454294       -0.8069953429
 H          8.3909384651        1.9947746426        0.5562917172
 H          8.7343925282        1.5128081007       -1.1305686938
 H          9.7861086980        0.9502858186        0.1916843029
 H          7.1526250275       -4.1812029055        0.9236987694
 H          5.5350985788       -3.5727552215        1.3501335061
 H          5.9334347831       -3.9487166491       -0.3526422027
 H          4.2228548871       -2.3366096368       -0.1779872075
 H         -0.5198068148       -1.6705270134       -1.0976929163
 H         -1.4405755590       -0.9287838913        0.2268639245
 H          0.1018866333       -1.7258086862        0.5599053016
 H         -4.6203239125        3.2991358048        0.0546005483
 H         -3.7458052838        2.6923334959        2.9081090900
 H         -5.2401343117        2.1955676403        2.0936423174
 H         -4.9863979090        3.8791108077        2.5119160611
 H         -2.4451817056        4.6443779108        1.7202893786
 H         -2.5844331529        4.8324368162       -0.0348179639
 H         -3.8771207325        5.3756705742        1.0142401112
 H         -0.4056823319        1.5896386459        2.5571795560
