25
 energy: -42.102091862875 gnorm: 0.007135198327 xtb: 6.6.1 (8d0f1dd)
C            3.33013447384750        0.87773789872866        0.48740651045540
N            1.95451558630650        0.46734260564530        0.21479179723725
C            1.82769462621042       -0.53225278474758       -0.69423722389916
N            0.88625123823398       -1.46329522495875       -0.78799493581036
C           -0.25968040103630       -1.69522170931332       -0.08277961873556
C            0.96403517640368        1.14005744104445        0.92344308794602
C           -0.44402323669642        1.12311093091223        0.38204147209757
O            1.21947380538687        1.82734238940209        1.87695592530731
N           -0.78094325462313        1.93935771228603       -0.48833695737797
C           -2.09985974179595        2.17311709788369       -0.96823043488392
C           -1.19351660200145       -0.99834398597547        0.66701977969588
O           -1.35183740404526        0.24877996574525        1.05521124743009
N           -2.05892646352187       -2.03582721506893        0.77130890921924
C           -1.15793293710126       -2.91611239944095        0.02014439470635
H            3.89322669145006        0.05737240808369        0.93077247997041
H            3.81525406397250        1.19999360130286       -0.43328652016389
H            3.30243513137201        1.70921464750268        1.18927791425144
H            2.68072055412284       -0.66625743851136       -1.34656551830653
H           -2.37403509918971        3.18376132192731       -0.66190204573006
H           -2.06061231733785        2.16251856447011       -2.05885030161966
H           -2.84590875822206        1.46457423783066       -0.59709415819038
H           -0.76474308069457       -3.75233928716842        0.59993255544943
H           -1.60324355494757       -3.27322948946002       -0.90866674563966
H           -2.79469856513690       -2.24035885698014        1.42314654707231
H            1.07665158314919       -2.18280388954074       -1.48233654257667
