  25
        -42.16628327
 C          2.9171634615        0.8539994341       -0.4619107637
 N          2.0614881888       -0.2607803142       -0.1673856129
 C          2.4479651886       -1.5291005855       -0.1561406561
 N          1.4141719140       -2.3134206474        0.1635490966
 C          0.2764669164       -1.5490171617        0.4065002887
 C          0.6943257754       -0.1907080876        0.1266408584
 C          0.0859113209        1.0813624918        0.2015709021
 O          0.6077005194        2.1615897062        0.3538674912
 N         -1.4438911916        1.1352259253       -0.0302583267
 C         -2.1633264016        1.9256009482        0.9790923600
 C         -1.8285281713        1.0798363352       -1.2279012702
 O         -2.0788150587        0.9622738853       -2.3507665013
 N         -0.7512638214       -2.1620742351        0.8677988990
 C         -1.9887674231       -1.6381890929        1.2961993591
 H          2.9602734214        1.5336321833        0.3906436211
 H          3.9164164739        0.4892950742       -0.6885115449
 H          2.5353593298        1.4160968173       -1.3152620168
 H          3.4414615043       -1.8683415471       -0.3763909808
 H         -1.7001918406        2.9105192447        1.0608176932
 H         -3.2075373700        2.0310467562        0.6973152775
 H         -2.0854596659        1.4165038653        1.9379007692
 H         -1.8638250587       -0.7755803831        1.9582909087
 H         -2.4960422227       -2.4310930723        1.8473496636
 H         -2.6244520444       -1.3535398681        0.4507812396
 H          1.4236556168       -3.3158615789        0.2781469963
