  72
        -99.18829135
 N         -1.4634165569        2.7445487791        2.4306354740
 C         -1.6021851168        2.0697512268        1.3887105941
 C         -2.8522784005        2.0352208186        0.5533281228
 C         -3.3507300506        0.6026495990        0.4510784912
 C         -4.3483307388        0.2740178584       -0.4692726958
 C         -4.8611694495       -1.0098624589       -0.5528430978
 O         -5.8314797157       -1.4091567018       -1.4017655385
 C         -6.4711511551       -0.4555843650       -2.2166552982
 C         -4.3584851076       -2.0223940106        0.3081620523
 O         -4.9156574610       -3.2413269330        0.1587983489
 C         -4.5518768758       -4.2729318051        1.0462935782
 C         -3.3679535926       -1.6898714500        1.2180715912
 C         -2.8757223485       -0.3931892964        1.2902131963
 C         -2.4372293065        2.5740530498       -0.8420003907
 C         -1.6330846300        1.5849113188       -1.7045071495
 C         -0.2703031348        1.3301641606       -1.1908781627
 N          0.3097217844        0.1384141098       -1.1289950162
 C          1.6716853040        0.0101485578       -0.6640305253
 C          2.6793167396       -0.0205167764       -1.8247456959
 C          4.0687648470       -0.3013043211       -1.2698935270
 C          4.6929386185        0.8517127618       -0.6155221820
 C          5.8206136805        0.8538156127        0.1144294185
 C          6.7209061402       -0.2725984666        0.3114369581
 O          7.3044150745       -0.9437183363       -0.7476162433
 C          7.5447686552       -0.2173086323       -1.9344713194
 C          7.1521751167       -0.5455613100        1.5573549214
 O          7.6590223863       -1.5377472825        2.1868006387
 C          7.5269506347       -2.8765643929        1.6891537255
 C          4.5362941914       -1.5207925662       -1.3219631339
 C         -0.3691936552       -1.0657776635       -1.5447659403
 C         -4.0082160859        2.9050919198        1.1304023148
 C         -4.4501130556        2.4028815394        2.5029593758
 C         -3.6652885703        4.3901722076        1.2114966076
 H         -4.7427235556        1.0397055244       -1.1168449418
 H         -6.9297691313        0.3390155710       -1.6204785907
 H         -7.2488149788       -1.0011179021       -2.7475331918
 H         -5.7792428953       -0.0168782687       -2.9432073958
 H         -4.7584479814       -3.9987799764        2.0850695817
 H         -5.1669698933       -5.1267826220        0.7693250921
 H         -3.4952436160       -4.5395544629        0.9418734752
 H         -2.9799835292       -2.4325020764        1.8961805163
 H         -2.1321204887       -0.1662113134        2.0383780297
 H         -3.3379062415        2.8423930927       -1.3935919299
 H         -1.8531150333        3.4845427081       -0.7031112026
 H         -2.1945307874        0.6586321197       -1.8132112713
 H         -1.5391866471        2.0398826392       -2.6992856905
 H         -0.7953771844        1.4620904146        0.9382004928
 H          0.3422541799        2.1836960350       -0.9416151188
 H          1.7618509767       -0.9161581347       -0.0902891378
 H          1.9070376432        0.8450002150        0.0005203960
 H          2.6670008030        0.9370229047       -2.3486719172
 H          2.4040712528       -0.8063321170       -2.5279563487
 H          4.1309119047        1.7731448963       -0.6869074105
 H          6.0707706202        1.7444206328        0.6744918626
 H          8.1260446513        0.6853746898       -1.7298408034
 H          6.6116902241        0.0560019819       -2.4336275406
 H          8.1209384200       -0.8831470087       -2.5748538988
 H          7.8535033968       -3.5382496925        2.4882327246
 H          6.4887270227       -3.0832239584        1.4221244752
 H          8.1593299703       -3.0004350698        0.8082845335
 H          5.3729108249       -2.1364563266       -1.1101959061
 H         -0.7093488871       -0.9861297303       -2.5783345074
 H         -1.2338819811       -1.2604747397       -0.9039734817
 H          0.3147963473       -1.9069958714       -1.4711650964
 H         -4.8538365947        2.7883760593        0.4425270254
 H         -3.6482825109        2.5317906723        3.2229813553
 H         -4.7285871627        1.3523618506        2.4667591334
 H         -5.3114877363        2.9733264897        2.8398941628
 H         -2.7953843741        4.5407346493        1.8428301001
 H         -3.4774593036        4.8188011719        0.2307581052
 H         -4.5027354494        4.9243881308        1.6525002495
 H         -0.5619289647        2.7179571905        2.8969425457
