72
 energy: -99.406468854751 gnorm: 0.007857987166 xtb: 6.6.1 (8d0f1dd)
N           -1.88329907492041        2.80483478376320        2.22439238588461
C           -1.83233024244912        2.12529735119643        1.17809382796287
C           -2.98414572272747        1.91512224348682        0.23415123005605
C           -3.46167667208244        0.47275652663111        0.32379288499298
C           -4.42118693144633        0.00913868551723       -0.57872405450088
C           -4.89703046156903       -1.28989502577446       -0.52721557930549
O           -5.83121873077852       -1.81034852838541       -1.34898231608942
C           -6.46018564591009       -0.97616607344898       -2.29328786672163
C           -4.38799713935924       -2.18304387075990        0.45440613607591
O           -4.89878931224503       -3.43001300435217        0.42240844709731
C           -4.50837386699385       -4.35741254815887        1.40785621713454
C           -3.43551364242451       -1.71746895042461        1.34623223264255
C           -2.98180899619964       -0.40500715642381        1.28298990211933
C           -2.43047933484143        2.19196852339365       -1.18835218453215
C           -1.49615175556259        1.09409555255654       -1.72979650513863
C           -0.16148534829423        1.09037376569617       -1.09086123872831
N            0.49603808490673        0.01344529415504       -0.67834455150275
C            1.87363169247347        0.11639261817391       -0.25891849650245
C            2.84200374429152       -0.33815433571521       -1.36738587156640
C            4.26176001853110       -0.13401246978264       -0.91941404604959
C            4.90103768850241        1.07633000770724       -1.13262311094446
C            6.20162613472546        1.27817392836681       -0.69768331490716
C            6.88849027402123        0.27160123572126       -0.03414262733386
O            8.15013706774959        0.35392181544965        0.42648971022786
C            8.88146419700264        1.54047493294871        0.21929348436324
C            6.23788308717694       -0.97246523645381        0.19535656255296
O            6.97618342971250       -1.89450795247140        0.84430296348435
C            6.42870350455781       -3.16805048891553        1.08838171648330
C            4.93666544041266       -1.15007469771023       -0.24737367110266
C           -0.09533738579370       -1.30265695978890       -0.70146259464668
C           -4.19171590129628        2.85520490141416        0.52598640318539
C           -4.83697764585552        2.51685124731471        1.87011151492520
C           -3.82412478427288        4.33286147143978        0.47302105240172
H           -4.81335158421682        0.68096850818752       -1.32377671258399
H           -6.97236788210146       -0.13867452353944       -1.80987589881860
H           -7.19321517985734       -1.60469489008716       -2.79499595870212
H           -5.74780385925848       -0.59417973462091       -3.03172542309139
H           -4.74560965159701       -3.99782512185588        2.41338032071212
H           -5.08148434961228       -5.25943005942273        1.20266529190740
H           -3.43956736615614       -4.58570073091349        1.34353191470371
H           -3.04376589905321       -2.36746923540427        2.11185324440715
H           -2.26257645486555       -0.07216599620610        2.01546308541361
H           -3.26869007341840        2.29143472204890       -1.87691341765793
H           -1.89567844607509        3.14249369066332       -1.18090162529170
H           -1.98503495820524        0.12467617821607       -1.64990714803739
H           -1.34680042356910        1.30539838314730       -2.79666610875788
H           -0.91073428007938        1.63425274395583        0.80931329212901
H            0.38682771579032        2.02121623633206       -1.08408427533304
H            2.02550208118690       -0.49804730359982        0.63253376131318
H            2.09639120197015        1.15354788523147        0.00034126313305
H            2.64650423472385        0.25053933543493       -2.26532930983784
H            2.66655970898838       -1.38950850990245       -1.59797067759621
H            4.39164827014318        1.87212307835210       -1.65460766768854
H            6.67571837967606        2.22730010958611       -0.88605723367476
H            8.41041968753073        2.39359464589654        0.71699184215633
H            8.99835682622532        1.75744175432422       -0.84668487091672
H            9.85989756060654        1.36087633021224        0.66047236955145
H            7.21112378837124       -3.73039790799540        1.59409171831485
H            5.54935493748425       -3.10918712064668        1.73795364051773
H            6.16300919330940       -3.67617227594421        0.15617428148505
H            4.43668983122800       -2.09221759582787       -0.08564701663891
H           -0.24882940662382       -1.64940583938167       -1.72556104027680
H           -1.05828524621246       -1.29723140060241       -0.18439486980430
H            0.56572412814409       -2.00074728258935       -0.19437071839122
H           -4.93171020893404        2.66646620206961       -0.26029801636280
H           -4.10979105456818        2.61376747867593        2.67313033247672
H           -5.23178893013360        1.50183661376396        1.87488868984306
H           -5.65589311361746        3.20462758320557        2.06495739115272
H           -3.06857691186225        4.56014425407604        1.22140490913937
H           -3.47680902463742        4.61380793582448       -0.51150560850715
H           -4.70896971826099        4.92046671549338        0.70611769619324
H           -1.03567369450455        2.90064707997656        2.77457475400245
