25
 energy: -42.099354732636 gnorm: 0.008702678730 xtb: 6.6.1 (8d0f1dd)
C            3.29466582792192        1.00794162162982        0.25200961207582
N            2.40807352091228        0.01855497309330        0.18076145225280
C            2.61940057913130       -1.30578473194318        0.40820995289368
N            1.45532124127387       -1.97589380104822        0.28042392758160
C            0.47044925783158       -1.07475472533278       -0.04286981907661
C            1.06619037396773        0.16024607640158       -0.11542823063565
C            0.28833558614255        1.41279435583103       -0.42428598445670
O            0.72121277706746        2.53519631204616       -0.00809046422790
N           -1.14628423977789        1.07502783444941       -0.10388334039460
C           -2.01384039424140        2.19972522896621        0.13271942980521
C           -1.72819524221767       -0.15880259932893       -0.14788907137784
O           -2.91439529592224       -0.33337529451448       -0.10392527712023
N           -0.85102894707461       -1.28482021648500       -0.19272519644784
C           -1.42937546920444       -2.61184949690477       -0.18830455653823
H            4.31670308653553        0.79105020991934        0.49883234179292
H            0.23632356521015        1.43409926363132       -1.56346003865705
H            2.93824281077287        2.01313063869532        0.09465667508171
H            3.56572111242267       -1.74273507111069        0.65341303371825
H           -1.38315696872440        3.06517967724419        0.33162126233319
H           -2.65782450675247        2.38972982289098       -0.72945519655863
H           -2.66024865132384        1.99249722375997        0.98665009855517
H           -1.30279521179972       -3.09492388093566        0.78233568054789
H           -0.97990763869373       -3.22040524742289       -0.97276190825135
H           -2.49596099388726       -2.50187198327911       -0.38238991080268
H            1.34280533452972       -2.97171764865264        0.40500714580703
