72
 energy: -99.363173599365 gnorm: 0.001290400520 xtb: 6.6.1 (8d0f1dd)
N           -1.81666692204841        3.04134727498337        2.09488606740731
C           -1.87974864878124        2.16482740208729        1.20815328958130
C           -3.05543093980164        1.95571677702357        0.29443291969428
C           -3.64131140655794        0.57027218501792        0.53667624361931
C           -4.58740038029387        0.05640427828274       -0.34630103514308
C           -5.16516254237464       -1.19130789379729       -0.12735265324024
O           -6.09106940513594       -1.76309093274573       -0.92703063273127
C           -6.59489293338476       -1.04468722907323       -2.03001198916522
C           -4.78161449316901       -1.93783444395690        0.99270677519140
O           -2.27922114747558       -3.56596880220558       -0.19600666285358
C           -2.91535978548424       -4.52957070682745        0.14167404446942
C           -3.84584277724245       -1.43021187147648        1.86558655595291
C           -3.27673798783392       -0.18369284053237        1.64532369683266
C           -2.49517688334107        2.05357160751382       -1.14892624303038
C           -1.62414327461812        0.85848664581620       -1.56662287596919
C           -0.26836913562855        0.89162266400026       -0.97643130578178
N            0.41987747533448       -0.16994904277170       -0.60139280696819
C            1.80096146979051       -0.04744872647900       -0.19977205465671
C            2.75906442648276       -0.45089914165020       -1.33718691950544
C            4.18087499444142       -0.22825163788988       -0.90482275688327
C            4.79643803955739        0.99584555738021       -1.11158933557857
C            6.09586747990832        1.21825223216198       -0.68398470248044
C            6.80611462594765        0.21875501002381       -0.03399557595594
O            8.06684125595399        0.32234873168189        0.42281581121827
C            8.77030203196565        1.52876334536961        0.23397432364486
C            6.18162547525079       -1.04122906901908        0.18489994911974
O            6.94219674009924       -1.95466087882773        0.81825945332295
C            6.42240874834518       -3.24132428232274        1.05580180198946
C            4.88051590860271       -1.23906501908720       -0.25057346586382
C           -0.13789416765111       -1.49883217156531       -0.65194427938063
C           -4.19030186427149        3.00289386358042        0.49616913577849
C           -4.80838422337103        2.89375718095571        1.88816507391710
C           -3.73978686995742        4.43961266508292        0.24520824350255
H           -4.88452762221873        0.63887332066358       -1.20304357766226
H           -7.06275897353344       -0.10675849306907       -1.71640721970013
H           -7.34844330820274       -1.68812049310890       -2.48000323751571
H           -5.81225065725614       -0.83766347176394       -2.76680319206233
H           -5.24247094111994       -2.89805454454965        1.15509771809393
H           -3.76622582618753       -4.91031193481980       -0.43944093625480
H           -2.68029160502587       -5.10032374807234        1.05183373251278
H           -3.55874699614149       -2.00118389177953        2.73499477536881
H           -2.56905171838043        0.20787289462629        2.35957957018314
H           -3.33196447080020        2.12931649688395       -1.84233919686026
H           -1.91245570846298        2.97127246716338       -1.23864361091131
H           -2.13713681439853       -0.07437324481695       -1.33331820563331
H           -1.50784020394634        0.90550863283678       -2.65763059363839
H           -1.04735794094031        1.47626814982493        0.96530053507137
H            0.25131321512659        1.83929792556792       -0.96336091769575
H            1.97858647365442       -0.68594666161833        0.66929422821571
H            2.00781659696556        0.98622918755439        0.08592533095426
H            2.53749143762358        0.15821055253407       -2.21524047607663
H            2.60165638157962       -1.49876358452913       -1.59456209698274
H            4.26827855607239        1.78689177580838       -1.62194827656358
H            6.55052503669086        2.17802501496253       -0.86615148405577
H            8.27804645892923        2.36314840838318        0.74275087058486
H            8.88381439064131        1.76357857827940       -0.82853898428773
H            9.75194385134763        1.36622648060435        0.67462401661798
H            7.21909473373902       -3.79064866162354        1.55354283958708
H            5.54541704689409       -3.20538385990534        1.70998650749453
H            6.16274662618429       -3.74799528339644        0.12121928654837
H            4.40023107343197       -2.19254200711777       -0.09600809755622
H           -0.36605138752039       -1.79499640529954       -1.67651896127370
H           -1.05930739333772       -1.56362518891049       -0.07147914815908
H            0.57138470356011       -2.20912685740167       -0.23805863616503
H           -4.96847377327828        2.75966685757392       -0.23672872836686
H           -4.07399577923036        3.15507141808844        2.64349333952144
H           -5.17069396775324        1.88685119408150        2.08081721565474
H           -5.64702260782528        3.58018955789495        1.96961211753156
H           -2.93536774346606        4.70641823278113        0.92362741823312
H           -3.41221383943949        4.59126062704302       -0.77991387880087
H           -4.57478267062328        5.11064918068313        0.42897708845547
H           -0.96097191953442        3.11467816971063        2.63593961827779
