25
 energy: -42.456511582378 xtb: 6.6.1 (8d0f1dd)
C            3.25217415265652        1.22404744989564        0.10426927799869
N            2.30854315887583        0.14449020405328        0.00989202285548
C            2.57485711888692       -1.15244489521419       -0.03247494514868
N            1.44300221513372       -1.86380276840237       -0.11567915824535
C            0.37559657952792       -0.98327648091486       -0.11519135293577
C            0.93281548000859        0.31386056956388       -0.04143277405581
C            0.14176863100979        1.48092786966630       -0.03837786242036
O            0.53939214023349        2.64710425595998       -0.01291830509715
N           -1.23119420632904        1.15362524262763       -0.08200209181082
C           -2.17689140454441        2.26094633006981       -0.05139906583747
C           -1.80909470778740       -0.08502174537916       -0.12603989013386
O           -3.00797589035554       -0.24177324089145       -0.13096519586507
N           -0.94150196847410       -1.23625864984495       -0.18448817000546
C           -1.50726465428324       -2.45874566363855       -0.26211353968412
H            3.71724690780403        1.23632074189580        1.09132340205326
H            4.02780168768999        1.11590295009001       -0.65338715569892
H            2.70719458333447        2.15748158297937       -0.04545086899518
H            3.55920428881605       -1.58038957564943       -0.00683071154922
H           -1.60786408649189        3.18788512567794       -0.02773006645775
H           -2.81345095715657        2.22672339177237       -0.93535100836313
H           -2.81048716920106        2.18847254628141        0.83221487708484
H           -1.68373092729926       -5.07445153174987        1.32298029533809
H           -0.91694347154659       -3.34926933128330       -0.27581674258438
H           -2.57152991960872       -2.49045578234914       -0.30478346094689
H            1.37097725918112       -2.87011330761060       -0.14153207044763
