  25
        -42.06197146
 C          5.7755526982        0.9806203823        0.0839498422
 N          2.0571198842        0.2040562325       -0.0286136698
 C          2.4113140175       -1.0745236660       -0.0252109521
 N          1.2992219615       -1.8415871798       -0.0135141640
 C          0.2091429462       -1.0158730607       -0.0066193381
 C          0.6886311164        0.2832390664       -0.0164203396
 C         -0.2057528803        1.4322601224       -0.0148584598
 O          0.1475828168        2.5845633835       -0.0167181283
 N         -1.5375502142        1.0262540631       -0.0077678389
 C         -2.5534119630        2.0728251440       -0.0092855126
 C         -2.0391691769       -0.2620842742        0.0038457292
 O         -3.2131638526       -0.4982770903        0.0123188828
 N         -1.0965377865       -1.3210509665        0.0053685410
 C         -1.5810958127       -2.6876076593        0.0229569720
 H          6.1922744150        1.2359299250        1.0467275260
 H          6.3816338355        1.1134091137       -0.8021818167
 H          2.6837606640        1.0009915790       -0.0227069991
 H          3.4169372191       -1.4460483291       -0.0337346954
 H         -2.0462314960        3.0342764996       -0.0218821606
 H         -3.1888576400        1.9676135087       -0.8877375558
 H         -3.1758803626        1.9843609428        0.8802232471
 H         -1.2363488859       -3.2050554007        0.9184232920
 H         -1.2570128452       -3.2214133209       -0.8705925358
 H         -2.6698116157       -2.6449338129        0.0349313525
 H          1.2883079174       -2.8522039878       -0.0099515530
