  72
        -99.33685501
 N         -1.7205672270        2.6826905909        2.5383234768
 C         -1.7268032087        2.0958272901        1.4350849793
 C         -2.9062971263        2.0441452726        0.5009757044
 C         -3.4644667496        0.6339262912        0.4821263332
 C         -4.5450918129        0.3381521724       -0.5157074450
 C         -4.9116067131       -1.1109693442       -0.6035525492
 O         -5.6521910088       -1.5594224253       -1.6052101758
 C         -6.1902187315       -0.8311735323       -2.5442450597
 C         -4.5088416902       -2.0374127605        0.3866264219
 O         -5.0485174897       -3.2717778985        0.2788782239
 C         -4.7931509655       -4.2146716179        1.2978363500
 C         -3.6081930046       -1.6366579672        1.3552274807
 C         -3.0736004121       -0.3254149912        1.3527923672
 C         -2.3597599077        2.4264423437       -0.9014105762
 C         -1.4884212989        1.3465628556       -1.5697407554
 C         -0.1422187983        1.2138791413       -0.9674836162
 N          0.4715582894        0.0590393004       -0.7134056744
 C          1.8609300188        0.0414069247       -0.3243909223
 C          2.7869984581       -0.3217098489       -1.5012835747
 C          4.2202584560       -0.2334085969       -1.0577583482
 C          4.9162065640        0.9596170891       -1.1556919832
 C          6.2256320190        1.0562799399       -0.7100926207
 C          6.8635824030       -0.0408806445       -0.1507866652
 O          8.1272191684       -0.0618751080        0.3157052335
 C          8.9067068096        1.1089849834        0.2364058592
 C          6.1567384983       -1.2697210978       -0.0445474459
 O          6.8525983436       -2.2853748572        0.5075010761
 C          6.2454815143       -3.5489577290        0.6290484936
 C          4.8487837382       -1.3422591445       -0.4955452061
 C         -0.1880190710       -1.2126366269       -0.8852079758
 C         -4.0459001743        3.0325675284        0.9011960442
 C         -4.7030603139        2.6214513666        2.2167982100
 C         -3.5807121962        4.4829751096        0.9937031583
 H         -5.4427439106        0.9233789025       -0.2560959811
 H         -6.1792101499        0.2504464594       -2.5306781435
 H         -6.6773900548       -1.3820155277       -3.3362346775
 H         -4.2442663872        0.6859903314       -1.5152388474
 H         -5.1010704672       -3.8356970212        2.2769273635
 H         -5.3913927437       -5.0874387061        1.0443687958
 H         -3.7360820795       -4.4964194609        1.3295833202
 H         -3.2849316296       -2.3162845564        2.1238232111
 H         -2.3325703842       -0.0989914234        2.1050681854
 H         -3.2020507965        2.6455666832       -1.5579525471
 H         -1.7746049743        3.3417023126       -0.8093772742
 H         -2.0076050203        0.3903844090       -1.5711186231
 H         -1.3541208617        1.6546593035       -2.6156307513
 H         -0.8475375281        1.5788479471        1.0050784455
 H          0.4531195605        2.1087628927       -0.8687887296
 H          1.9986032769       -0.6834759526        0.4825626713
 H          2.1417717585        1.0272505615        0.0517115018
 H          2.6055729098        0.3771915582       -2.3195389765
 H          2.5598551937       -1.3297526718       -1.8501578686
 H          4.4444186629        1.8263943012       -1.5932540742
 H          6.7437356793        1.9961329978       -0.8069901455
 H          8.4644830008        1.9250157740        0.8162029278
 H          9.0438398429        1.4296030385       -0.8007026792
 H          9.8725425139        0.8458021645        0.6632721990
 H          6.9990741434       -4.1929793174        1.0780793230
 H          5.3673591222       -3.5118316231        1.2820527673
 H          5.9597252800       -3.9530838204       -0.3471776805
 H          4.3055664375       -2.2717458957       -0.4254026030
 H         -0.3872593276       -1.4167707656       -1.9399401785
 H         -1.1336200595       -1.2304687704       -0.3377538973
 H          0.4500235499       -2.0017741678       -0.4959349501
 H         -4.7982143303        2.9796202746        0.1053823287
 H         -3.9844781953        2.6991636504        3.0257985354
 H         -5.0733524963        1.5999866637        2.1778053987
 H         -5.5393302324        3.2820403501        2.4297475441
 H         -2.8130827372        4.5866372361        1.7537093078
 H         -3.1995038638        4.8488399892        0.0441313990
 H         -4.4242608715        5.1076734266        1.2756516262
 H         -0.8565080394        2.6701835291        3.0715356052
