72
 energy: -99.290680797821 gnorm: 0.009567893699 xtb: 6.6.1 (8d0f1dd)
N           -1.82965131886910        2.85894477285244        2.10875770498763
C           -1.76962710116130        2.12562653388483        1.09925969063086
C           -2.93781366857654        1.82448331376326        0.19599210998704
C           -3.36369651219141        0.36463631443309        0.41596577720238
C           -4.36252108981566       -0.14049177041250       -0.36265620819403
C           -5.06150250176570       -1.38807274529589       -0.37828609236832
O           -5.99302597699351       -1.66024737978095       -1.34312144946498
C           -6.46932197812533       -0.65817967706651       -2.20595095989432
C           -4.90495236350229       -2.39784350574528        0.53426324429503
O           -5.63145067971476       -3.51564413091945        0.44852006885431
C           -5.46730697834636       -4.46563006269244        1.47687373621370
C           -1.82714757530130       -0.60233791781638        2.27528064562816
C           -2.63284715592527       -0.28584301947117        1.42908246841166
C           -2.43314014854627        2.02550731871040       -1.25710408004092
C           -1.48842823659483        0.92200073821094       -1.76482837389557
C           -0.13062203447383        0.99616989799207       -1.17956400681459
N            0.59256433086165       -0.04783460521379       -0.78967722045807
C            1.96058859902424        0.12512544853101       -0.36238573963324
C            2.96429753409748       -0.24099879804309       -1.47244006374971
C            4.36742518038713       -0.04085477630819       -0.97180411440156
C            4.98896544991463        1.19159801832128       -1.08350613221003
C            6.27039538251164        1.38722896319445       -0.59154180948736
C            6.95486642207696        0.35201892373588        0.02830575426993
O            8.19837293490618        0.42719123048257        0.53949311187049
C            8.91198127735288        1.63755567284662        0.43425743932432
C            6.32324578592070       -0.91590735157123        0.15154341988211
O            7.05851378336861       -1.86613603456164        0.76454095921875
C            6.53012450803820       -3.16312745163927        0.90222847164531
C            5.04169393579779       -1.08723526547091       -0.34656700009171
C            0.07630828698800       -1.39501932646117       -0.83299606053710
C           -4.16418747609034        2.74660748672913        0.46746497815152
C           -4.77245957837183        2.47992223062896        1.84288776724512
C           -3.84285784179871        4.23182094704154        0.32701931541245
H           -4.72336551805681        0.54702108483777       -1.11339603120178
H           -6.88489651522477        0.19282637629840       -1.65643270193543
H           -7.26647504718506       -1.13312212723621       -2.77592009455806
H           -5.69749683241728       -0.31116371413175       -2.90236935169582
H           -5.84792349760280       -4.08192031205237        2.42927589391815
H           -6.04646634569489       -5.33882129042616        1.18096242038732
H           -4.41624039742646       -4.74475899622997        1.59802344473078
H           -1.21559841570362       -0.97949797794758        3.04232795663850
H           -4.18795939266066       -2.30316106652683        1.34025665780722
H           -3.29253489997021        2.07034990459992       -1.92604383055114
H           -1.92108687249774        2.98666414151880       -1.31815952066960
H           -1.94197942731811       -0.05401299052211       -1.59706859537971
H           -1.39202691506701        1.06070059767181       -2.84999207147238
H           -0.83977764790021        1.64474868292113        0.73935472907398
H            0.37048191825249        1.95246666780127       -1.19564541258243
H            2.14196833244695       -0.50536990407048        0.51225427030476
H            2.12034614202689        1.16511365906615       -0.07072988104435
H            2.78037653866053        0.39718768436797       -2.33823213144978
H            2.81666585139666       -1.27944315015205       -1.77175343419141
H            4.48120593702007        2.01132506019290       -1.56867054184748
H            6.73095907894542        2.35534597772770       -0.70007631586574
H            8.40927318539627        2.44742283008360        0.97176927024917
H            9.05742908942885        1.92698088669644       -0.61077004673492
H            9.87972559771118        1.44631480209984        0.89381010654888
H            7.30600309625132       -3.74363670044598        1.39748882686485
H            5.62725031032093       -3.16554418069112        1.52168658601326
H            6.30836234693059       -3.61208631040284       -0.07098434786035
H            4.55688734324805       -2.04764154688141       -0.26534503192422
H           -0.17387070318703       -1.68741943854233       -1.85473226590885
H           -0.81735878863022       -1.48110238481331       -0.20940618595837
H            0.82905005282085       -2.07959773739037       -0.45182552615285
H           -4.91874241751958        2.49956669768901       -0.28814557019802
H           -4.05282773059385        2.71804890123977        2.61956983636021
H           -5.07194114934702        1.43968664041537        1.94872457373436
H           -5.65131281429344        3.10446345516815        1.97916516830488
H           -3.11071623747674        4.53323949760777        1.06993159366186
H           -3.47027672717439        4.47644416649000       -0.66463643794550
H           -4.75088468498325        4.80650822691242        0.49198350696348
H           -0.97449344114069        3.00497941662110        2.63570797625626
