  72
        -99.29756207
 N         -1.6763749987        3.0437031215        2.3079118960
 C         -1.7895013443        2.2009678519        1.3923560833
 C         -2.9702564129        2.1084090244        0.4631570374
 C         -3.5881179410        0.7346255385        0.5823955313
 C         -4.5219440162        0.2779874721       -0.3573105108
 C         -4.9613235811       -1.0204371117       -0.3708124690
 O         -5.9714562330       -1.5242519692       -1.0856937679
 C         -6.7651814538       -0.6598193711       -1.8732479404
 C         -4.2607116967       -2.0726438932        0.4660039250
 O         -3.3126566718       -2.7332971941       -0.3912273028
 C         -3.1616345275       -4.1099984558       -0.1384992281
 C         -3.5474191937       -1.4333232460        1.5806671847
 C         -3.2293924252       -0.1397564670        1.6543085729
 C         -2.4048081756        2.3025413018       -0.9715164063
 C         -1.6198558528        1.0983634820       -1.5183293144
 C         -0.2896976268        0.9328543591       -0.8944451509
 N          0.2866935685       -0.2263572148       -0.6214564882
 C          1.6642874229       -0.2631887312       -0.1891746720
 C          2.6197531532       -0.5462869037       -1.3653416481
 C          4.0463401584       -0.3927932290       -0.9183936755
 C          4.6668931017        0.8451618911       -0.9676708627
 C          5.9751369934        1.0019155467       -0.5376898573
 C          6.6896305144       -0.0798408149       -0.0433022658
 O          7.9615482186       -0.0463408732        0.3945339178
 C          8.6755700813        1.1672887852        0.3401333415
 C          6.0585937166       -1.3534786511        0.0187040615
 O          6.8238076236       -2.3471321219        0.5110725088
 C          6.2974573749       -3.6504503823        0.5882671198
 C          4.7489894023       -1.4852155234       -0.4162864639
 C         -0.3564487134       -1.4907755982       -0.8846163235
 C         -4.0754236025        3.1714866551        0.7471547372
 C         -4.6947860761        2.9644022383        2.1272213349
 C         -3.5803770878        4.6080178087        0.6103316461
 H         -4.9246268953        0.9803126875       -1.0710921860
 H         -7.1898914703        0.1451640461       -1.2676922585
 H         -7.5653582351       -1.2773457634       -2.2760211124
 H         -6.1851410609       -0.2343566881       -2.6969566651
 H         -4.0958183418       -4.6495945540       -0.3264366299
 H         -2.3957266192       -4.4613435275       -0.8279497550
 H         -2.8402610548       -4.2923235320        0.8923265225
 H         -5.0050619191       -2.8083671353        0.8028465218
 H         -2.6755337348        0.2584741813        2.4911417378
 H         -3.2376307284        2.4990209446       -1.6463779351
 H         -1.7609304834        3.1830059803       -0.9765497260
 H         -2.2155736575        0.1902942312       -1.4274688334
 H         -1.4630703921        1.2791749202       -2.5904840030
 H         -1.0137657071        1.4541873463        1.1411529501
 H          0.3115174089        1.8189856930       -0.7510758292
 H          1.7808836882       -1.0369456103        0.5732945747
 H          1.9298689172        0.6981758738        0.2559670820
 H          2.4063259501        0.1654491775       -2.1651817505
 H          2.4475647394       -1.5540828414       -1.7443746262
 H          4.1360849291        1.7006022685       -1.3574417087
 H          6.4333104424        1.9754218786       -0.5968706640
 H          8.2123116670        1.9333742198        0.9693881790
 H          8.7580592039        1.5373921204       -0.6861642024
 H          9.6685691988        0.9390249657        0.7223577071
 H          7.0977491330       -4.2645440327        0.9965195252
 H          5.4315725677       -3.6947416105        1.2565728878
 H          6.0185431903       -4.0297473082       -0.3996827191
 H          4.2644535656       -2.4483607319       -0.3819265444
 H         -0.4759100573       -1.6533613052       -1.9578854397
 H         -1.3450289571       -1.5418121057       -0.4228182363
 H          0.2516199180       -2.2935244982       -0.4762752339
 H         -4.8586210493        3.0097222433       -0.0028462961
 H         -3.9537452529        3.1444420743        2.8995763365
 H         -5.0815169281        1.9535527247        2.2364060993
 H         -5.5159552611        3.6621359636        2.2680532686
 H         -2.7764955993        4.7973539464        1.3143733256
 H         -3.2363459400        4.8255016574       -0.3972529199
 H         -4.3988505681        5.2866646027        0.8362235412
 H         -0.8254757489        3.0296852085        2.8614778651
