  25
        -42.09304502
 C          3.1781356793        1.0921584082        0.8879500933
 N          2.1226835272       -0.6009024035       -0.6543250254
 C          2.2886806339       -0.0944363720        0.7085740947
 N          1.3372079297       -1.8318138331       -0.7036171354
 C          0.3054655696       -1.2176301932       -0.1730911631
 C          0.9760074305        0.0912240255        0.0038593217
 C          0.1566566971        1.3141601648       -0.2306808592
 O          0.5827847974        2.3950792676       -0.5321974380
 N         -1.1703065289        1.0176581312        0.0175231465
 C         -2.1061886320        2.1409274757        0.0271653092
 C         -1.7807759709       -0.2284426817        0.2213632826
 O         -2.9427487252       -0.3197221714        0.4779272770
 N         -0.9866258128       -1.3929673614        0.0358918477
 C         -1.6357393074       -2.6873665850       -0.0737621696
 H          3.0180497581        1.5155507344        1.8775146587
 H          4.2225382097        0.7910083389        0.8236362258
 H          2.9740710871        1.8638403548        0.1483019842
 H          2.3654665519       -0.8804251385        1.4570671169
 H         -1.5369990930        3.0618409016       -0.0685197025
 H         -2.8072809308        2.0498524729       -0.8020160592
 H         -2.6692046536        2.1363293876        0.9593809535
 H         -1.3271569591       -3.3273597601        0.7519494378
 H         -1.3531240131       -3.1578642775       -1.0146931547
 H         -2.7124022438       -2.5338729082       -0.0321413552
 H          2.7092594227       -0.3331540438       -1.4523509945
