  25
        -42.18276058
 C          2.9189765793        1.3124237196        0.0071012655
 N          2.1173485589        0.2617537155       -0.0034594755
 C          2.4782629392       -1.0579239705        0.0009901830
 N          1.3465394388       -1.8379470180        0.0029146331
 C          0.2705046632       -1.0538129617       -0.0045545104
 C          0.7125673122        0.2933799504       -0.0072146527
 C         -0.2114491824        1.3005053744       -0.0036835592
 O          2.3752686015        2.5491433244       -0.0113721829
 N         -1.5293802356        0.9599300258        0.0087266374
 C         -2.5182747219        2.0230504981        0.0091156523
 C         -2.0130709383       -0.3520406022        0.0031056341
 O         -3.1858776892       -0.6026925492        0.0049365013
 N         -1.0515944126       -1.3672136139       -0.0009542367
 C         -1.4839499923       -2.7498104060        0.0011639045
 H          3.9855186040        1.1654751055        0.0337457715
 H          3.0414557330        3.2308052482       -0.1337628101
 H          0.0354436278        2.3481578625       -0.0076508618
 H          3.4779801063       -1.4237689776        0.0019696548
 H         -2.3040169670        2.7312035642        0.8083720366
 H         -2.5145488179        2.5445893902       -0.9492661611
 H         -3.5006205582        1.5814495820        0.1674672854
 H         -1.1135648649       -3.2609251556        0.8903554684
 H         -1.1315812756       -3.2595750568       -0.8964524087
 H         -2.5725099017       -2.7579476226        0.0117650812
 H          1.3643373623       -2.8461768337        0.0033944270
