  72
        -99.35579149
 N         -1.9100249228        2.8455588093        2.4241242266
 C         -1.9061646118        2.1702996803        1.3741046106
 C         -3.0750727765        2.0391376897        0.4368250716
 C         -3.5665817150        0.6002535915        0.4347664792
 C         -4.4744009102        0.1774941956       -0.5383964724
 C         -4.9730504922       -1.1145260813       -0.5506887744
 O         -5.8502850865       -1.6025567085       -1.4517336217
 C         -6.3925869088       -0.7403986389       -2.4242102153
 C         -4.5548428612       -2.0359217813        0.4476950931
 O         -5.0945117982       -3.2677258063        0.3621701178
 C         -4.8097444989       -4.2126072759        1.3676768945
 C         -3.6537015838       -1.6095773509        1.4104629026
 C         -3.1670730252       -0.3084397962        1.4027266111
 C         -2.5354400240        2.4287654034       -0.9643137666
 C         -1.6450383509        1.3622876202       -1.6264442364
 C         -0.3017594671        1.2408348158       -1.0183787723
 N          0.3118769784        0.1017362174       -0.7298173557
 C          1.7186701903        0.0866346960       -0.4028088840
 C          2.5716242072       -0.3660468883       -1.6026866779
 C          4.0303533848       -0.2904310875       -1.2429190754
 C          4.7326089019        0.8934113058       -1.4215852250
 C          6.0668715220        0.9708559854       -1.0498620751
 C          6.7052475799       -0.1195503547       -0.4999892460
 O         10.1734418148        0.4585504137        1.2962241160
 C         11.1699660986        1.0660461255        1.5533794110
 C          6.0099844712       -1.3234878570       -0.3227127362
 O          6.7182696777       -2.3400346474        0.2064859282
 C          6.1030645189       -3.5916026005        0.3984885429
 C          4.6671814154       -1.3950194457       -0.6921077333
 C         -0.3535989746       -1.1752108153       -0.8308414177
 C         -4.2766603003        2.9567076933        0.8133662267
 C         -4.8805309821        2.5649617856        2.1597951403
 C         -3.9202885591        4.4405477874        0.8214310106
 H         -4.8079688548        0.8753636435       -1.2883013070
 H         -6.9224779856        0.0994514579       -1.9650329506
 H         -7.0988670382       -1.3456617543       -2.9889508717
 H         -5.6207709524       -0.3613794048       -3.1021874764
 H         -5.1150638922       -3.8514306099        2.3540786877
 H         -5.3910045126       -5.0959498528        1.1108475307
 H         -3.7464365865       -4.4718731832        1.3860000964
 H         -3.3305584842       -2.2816842171        2.1886588275
 H         -2.4904182323       -0.0047389069        2.1864341224
 H         -3.3808915601        2.6194262595       -1.6244242515
 H         -1.9718280756        3.3582945694       -0.8760755812
 H         -2.1668763301        0.4072969759       -1.6438088988
 H         -1.4969291764        1.6812298743       -2.6666241315
 H         -1.0179922430        1.6299771679        0.9927585191
 H          0.2884803990        2.1417733267       -0.9337710867
 H          1.8860999759       -0.5896232129        0.4399833882
 H          2.0322666372        1.0888916484       -0.1039459046
 H          2.3622954185        0.2897023942       -2.4497236602
 H          2.3036037678       -1.3862042892       -1.8800350834
 H          4.2426414161        1.7501443450       -1.8594145771
 H          6.6107282942        1.8916846161       -1.1919454274
 H         11.5316044628        1.2099689633        2.5845094377
 H          7.7391144994       -0.0778024959       -0.1964761866
 H         11.8029917080        1.5267691638        0.7777276126
 H          6.8738461978       -4.2376993627        0.8142060301
 H          5.2694330145       -3.5250933262        1.1053264324
 H          5.7494668329       -4.0144426401       -0.5473632765
 H          4.1112397530       -2.3115520603       -0.5653247189
 H         -0.5421408533       -1.4434341457       -1.8726138409
 H         -1.3053318281       -1.1517700083       -0.2953205751
 H          0.2749884871       -1.9415427032       -0.3842851170
 H         -5.0400034266        2.7946742786        0.0433908031
 H         -4.1603927710        2.7336064636        2.9539969787
 H         -5.1790965434        1.5195166963        2.1686633289
 H         -5.7598555383        3.1730740814        2.3547626642
 H         -3.1376924147        4.6360948394        1.5479176975
 H         -3.5979430900        4.7873654548       -0.1567069127
 H         -4.7978438990        5.0154456367        1.1051691137
 H         -1.0531155441        2.8892259988        2.9665572463
