25
 energy: 0.000000000000 xtb: 6.6.1 (8d0f1dd)
C            3.23720163006194        1.16630919979326        0.08434469647475
N            2.29877817382611        0.07527477071623        0.03981603040599
C            2.58028210190900       -1.21425402444508        0.03006176031096
N            1.43813958087363       -1.93419271955128        0.00098261760884
C            0.39035688448383       -1.05887472636071       -0.00790371836672
C            0.93510056364412        0.21347819449412        0.01709077491437
C            0.09450143893243        1.40504303904423       -0.00410947031874
O            0.49712751527797        2.54126714362870       -0.00342325688240
N           -1.25076640035757        1.06271879480407       -0.03085478223738
C           -2.21907211982101        2.15522099834493       -0.05001256985998
C           -1.81739487048744       -0.20012725993278       -0.04692818574614
O           -2.99983886758376       -0.37846417018721       -0.07008878229737
N           -0.92618586207120       -1.30210215599479       -0.03682761578324
C           -1.46982264913417       -2.64643102187190       -0.06029820460571
H            3.71247264356769        1.21471455160235        1.06488849150277
H            4.00791497605742        1.03430808813993       -0.67357694370751
H            2.69910007168542        2.09770118228144       -0.09130154882931
H            3.56654120610678       -1.63682992603973        0.04233140067262
H           -1.67107961066214        3.09322851271934       -0.02552706933167
H           -2.82428953597071        2.09428624779827       -0.95318082946668
H           -2.87644029173232        2.07745725625962        0.81450067533302
H           -1.17061996399332       -3.19584890659852        0.83242232437030
H           -1.14560257411436       -3.17511610292205       -0.95688275822323
H           -2.55549792440841       -2.55659984320617       -0.07459039797972
H            1.38130855184625       -2.94313852034425       -0.01389874181052
25
 energy: -3.789857771103 xtb: 6.6.1 (8d0f1dd)
C            3.27630271418993        1.17346294519506        0.05012518426627
N            2.31632621583116        0.09347916161290        0.03340221539503
C            2.59330621389043       -1.23813301806945        0.05299519284660
N            1.41825790957621       -1.94274342483713        0.02774272596498
C            0.38979947010361       -1.05709236991685        0.00584753107670
C            0.93094361298657        0.22112903704658        0.02984303917734
C            0.09462001118752        1.39160708365768        0.00962349931286
O            0.48832833415998        2.55774903670878        0.01458159776597
N           -1.26848763800446        1.04731833034241       -0.02849657433965
C           -2.23102344030096        2.14293931456408       -0.05201436234406
C           -1.83203765973402       -0.20354567907691       -0.05408345962735
O           -3.02838677207159       -0.38589464165740       -0.09068172539260
N           -0.94212862222761       -1.30300595400766       -0.03589680308308
C           -1.48374890055403       -2.64494019994271       -0.06935973555867
H            3.80573178686692        1.16714871352032        0.99934397872102
H            4.07606334179253        1.17768163090646       -0.74329102887606
H            2.70438462410200        2.10121029492901       -0.02497649654666
H            3.56679347870032       -1.67035574382441        0.08884226661549
H           -1.67328445473423        3.07646698681701       -0.02766284062697
H           -2.83546150368705        2.08768184136629       -0.95712478852691
H           -2.89161772282747        2.07371503158741        0.81179992034258
H           -1.19140108853436       -3.20086169691613        0.82342440632377
H           -1.14967785862010       -3.17453828049639       -0.96386124939351
H           -2.56933702020053       -2.55449036850953       -0.09392563786855
H            1.34794963604544       -2.94695942882735        0.02083704052270
25
 energy: 2.248530168200 xtb: 6.6.1 (8d0f1dd)
C            3.32402768520712        1.17973948032237        0.00487483566432
N            2.33898328420347        0.11186368282086        0.01948378482631
C            2.59957668615363       -1.26023411535591        0.09061034031305
N            1.39377855401139       -1.94335101206486        0.07016789605370
C            0.38857792655901       -1.05112368540181        0.02729269203396
C            0.92838853940800        0.23333499884234        0.03811399523504
C            0.09489448391910        1.37251163426691        0.02546358082869
O            0.46273959093179        2.56054696626524        0.04606556690926
N           -1.29164941530555        1.03073814407380       -0.02641604598268
C           -2.24749092443779        2.12934476763142       -0.05466523465725
C           -1.84410388957697       -0.20784929475025       -0.06627221853099
O           -3.04625816959063       -0.39769367768190       -0.12472678930522
N           -0.95839226778740       -1.30118582667042       -0.03342153458774
C           -1.49927605143302       -2.64162438529133       -0.08350792180213
H            3.96370827445674        1.07353162791792        0.89294344511686
H            4.12956838038061        1.37287350646098       -0.85776687152619
H            2.71658569760463        2.10784200259909        0.08703154761075
H            3.55742879174437       -1.70706144390433        0.17143630881685
H           -1.68101549099979        3.05847858337855       -0.03132918789176
H           -2.85180731898238        2.07676669729404       -0.96100072429176
H           -2.91269946740242        2.06830732184476        0.80733975892482
H           -1.22418101879238       -3.20900082920023        0.80947934598916
H           -1.15443143899936       -3.17236587471599       -0.97538176061390
H           -2.58519588439062       -2.54999235558778       -0.12524490575392
H            1.31045811105462       -2.94536831092145        0.07646399276804
25
 energy: 9.623655938789 xtb: 6.6.1 (8d0f1dd)
C            3.35957210325770        1.18387025373236       -0.03009725557790
N            2.35259136394335        0.12459613026285        0.00762129910655
C            2.59631050540273       -1.26445480433478        0.12016024769807
N            1.38178240190307       -1.93690797237211        0.10937348277209
C            0.38575033252641       -1.04465161229834        0.04250387366912
C            0.92783365032358        0.24399037262826        0.03516296867607
C            0.08904839549732        1.36919493520124        0.03781614513750
O            0.43343602480380        2.56337943294521        0.07882255667661
N           -1.30971742416311        1.02458870936565       -0.02292015392240
C           -2.26560142051595        2.12012085314988       -0.05355082226189
C           -1.85308801045067       -0.21311387002454       -0.07883519086776
O           -3.05461103908699       -0.41077467124184       -0.15605712760540
N           -0.96572118908524       -1.29996942379144       -0.03175349830348
C           -1.50826343176343       -2.64003228662891       -0.09852448219108
H            4.09912893825808        0.98548290621507        0.78186136765857
H            4.14449736498538        1.49326497891779       -0.94570144958757
H            2.76455952696670        2.11169797500260        0.17728618951905
H            3.54478265462055       -1.72385905383884        0.25557752176381
H           -1.69778541943482        3.04785647951655       -0.03085818025707
H           -2.86956847447287        2.06438626662427       -0.96027217572351
H           -2.93285537353241        2.05996223772522        0.80723021625554
H           -1.25310932128860       -3.21702346314319        0.79472746175344
H           -1.15487150753304       -3.16807464891279       -0.98905489412224
H           -2.59436027079054       -2.54491042355732       -0.15745387420202
H            1.29247428756520       -2.93959069897079        0.13396967008317
25
 energy: 12.615693390748 xtb: 6.6.1 (8d0f1dd)
C            3.38249156322829        1.18199866570891       -0.05099707564940
N            2.35850612081898        0.13122320769916       -0.00121777174024
C            2.58992360095936       -1.25728752988281        0.13489991541068
N            1.37950286427276       -1.92765660721743        0.13598622045458
C            0.38236799788992       -1.03865843982698        0.04820443955173
C            0.92832421855450        0.25105351692725        0.02187058381112
C            0.08188875189119        1.37482894662398        0.04483982096646
O            0.41040178742019        2.56495615126048        0.10463015638207
N           -1.32013359159919        1.02431022834083       -0.01792340474593
C           -2.28039086427143        2.11455556952340       -0.04807756305498
C           -1.85863873313929       -0.21736082638473       -0.08703620507021
O           -3.05648309250142       -0.41936600113578       -0.17748240505173
N           -0.96705241109451       -1.29927512830187       -0.03091272258592
C           -1.51158595503876       -2.63964094042447       -0.11050943922775
H            4.16066734671977        0.93173292093366        0.69200208893185
H            4.15444031530428        1.54414007732018       -0.98395928818518
H            2.82927094577429        2.10034417575573        0.21836079993463
H            3.53126786978404       -1.72243239770039        0.32359224409921
H           -1.71680053893855        3.04399696030313       -0.02615719325509
H           -2.88553567172654        2.05402663441038       -0.95378755472412
H           -2.94714680059848        2.05185031651114        0.81291268097352
H           -1.27197916956025       -3.22267379908345        0.78242344773785
H           -1.15239462856498       -3.16367677793796       -1.00044768133530
H           -2.59739596010730       -2.54063149232453       -0.18160819017541
H            1.28869870245925       -2.93132882892577        0.17742799269480
25
 energy: 12.568199886699 xtb: 6.6.1 (8d0f1dd)
C            3.38915833109589        1.17842993444997       -0.05529230197436
N            2.35691400284873        0.13368518400327       -0.00460482222170
C            2.58434757256502       -1.24299025721330        0.12978579755113
N            1.38361173861405       -1.91781636085682        0.14854028301150
C            0.37918327752387       -1.03398803975410        0.04816027059283
C            0.92772578243699        0.25442490063300        0.00647638357611
C            0.07767764234724        1.38341069515559        0.04523568679568
O            0.39892144503630        2.56593193290007        0.11672042427863
N           -1.32179784480712        1.02596699478099       -0.01640823086072
C           -2.28715072966796        2.11215253756611       -0.04858109733945
C           -1.86040456655870       -0.21968663387200       -0.09031370755374
O           -3.05444881639158       -0.42112302210492       -0.18992960351007
N           -0.96499890099703       -1.29923393123629       -0.02836588885883
C           -1.50985085524849       -2.64037697597679       -0.11290969668464
H            4.19046761051117        0.87040849719896        0.62431057742028
H            4.13334659535687        1.56195081280895       -1.00685031936119
H            2.87174376988736        2.08831186526580        0.27860222861797
H            3.51892048397588       -1.70383752740502        0.36271610356667
H           -1.73008204745322        3.04519971491222       -0.02909124410769
H           -2.89347227817416        2.04588235300624       -0.95311830495163
H           -2.95277688034843        2.04866846516330        0.81331576474729
H           -1.27800896443586       -3.22309747301324        0.78058576519860
H           -1.14640745900118       -3.16261414465239       -1.00117740260291
H           -2.59493620678279       -2.53906824136075       -0.19010893616761
H            1.29453196560326       -2.92156267822682        0.19933616698508
25
 energy: 11.164955808907 xtb: 6.6.1 (8d0f1dd)
C            3.38538433145303        1.17651848235391       -0.04975177298652
N            2.35163028174957        0.13536566935321       -0.00545401082754
C            2.58239375200153       -1.23238975037805        0.11852014938602
N            1.38672262772132       -1.91166793405876        0.14877483957669
C            0.37727323015345       -1.03108010323910        0.04535475482283
C            0.92545602532754        0.25610489133273       -0.00452565236502
C            0.07642233325890        1.38821196361393        0.04101663836584
O            0.39664851495068        2.56829536096333        0.12111419617840
N           -1.31946649581911        1.02621670247859       -0.01869147507083
C           -2.28725168223178        2.11139043698591       -0.05093153023148
C           -1.86013059942051       -0.22012331872455       -0.09095272065074
O           -3.05256896285081       -0.41948684198005       -0.19274447021903
N           -0.96353046836004       -1.29925254434786       -0.02663007719669
C           -1.50686587967244       -2.64134448310509       -0.10973903268749
H            4.19598497276471        0.83361692314096        0.58849098143334
H            4.10644257592096        1.56106576277578       -1.00589716117867
H            2.89261302990961        2.07685929386195        0.31639825834167
H            3.51277359220707       -1.68556254092312        0.37981747095007
H           -1.73330328028216        3.04651592335536       -0.03315144097875
H           -2.89437590190018        2.04286536672158       -0.95464791476799
H           -2.95155701853821        2.04830048078734        0.81208339501430
H           -1.27471180728850       -3.22156387736804        0.78465929121150
H           -1.14135670741534       -3.16386758524848       -0.99660645202968
H           -2.59155239921467       -2.54092912654961       -0.18781505711939
H            1.29914060351150       -2.91503054962979        0.19834268917641
25
 energy: 10.150724425351 xtb: 6.6.1 (8d0f1dd)
C            3.38146293471381        1.17650528039714       -0.04518609661040
N            2.34736350775267        0.13766264162071       -0.00854655161744
C            2.58348728368572       -1.22849854121657        0.10608732161303
N            1.38761521069877       -1.90959694477707        0.14655387510352
C            0.37704242824164       -1.02969365191522        0.04386637910280
C            0.92327355966463        0.25735641458133       -0.00882730598605
C            0.07597600140508        1.38959567287829        0.03851828681246
O            0.39781445180024        2.57031732235849        0.11976686309834
N           -1.31801298834515        1.02610807870079       -0.02200993955495
C           -2.28612606326792        2.11165410218516       -0.05520269036722
C           -1.85965390309625       -0.21963673005481       -0.09077342594043
O           -3.05230033212809       -0.41842707100560       -0.19223658240177
N           -0.96305572883445       -1.29913214417885       -0.02497719132474
C           -1.50464918477864       -2.64186299922648       -0.10517439414391
H            4.20347910347102        0.80450339102107        0.56721282775721
H            4.08110116003513        1.56716731334040       -1.00572601513794
H            2.89886922962898        2.07315860425357        0.35541801131315
H            3.51099324159104       -1.67543837072500        0.38825242709093
H           -1.73227557501185        3.04707506913862       -0.03809203474011
H           -2.89298190214297        2.04241876745180       -0.95890544508314
H           -2.94994113070157        2.04941118974502        0.80819934458448
H           -1.26996069703907       -3.21988361297445        0.79028343010759
H           -1.13836087419727       -3.16561720479514       -0.99112691346348
H           -2.58931634492422       -2.54324614736183       -0.18262258395760
H            1.30037127971480       -2.91287182726930        0.19228229989289
25
 energy: 8.717825983065 xtb: 6.6.1 (8d0f1dd)
C            3.37804115616515        1.17640880274213       -0.03984235575807
N            2.34365657375359        0.13921793908707       -0.01250150141445
C            2.58664057530481       -1.22849380489664        0.09181676055828
N            1.38795678227453       -1.90975189688817        0.14243840991154
C            0.37808773469808       -1.02917825437410        0.04262476091862
C            0.92204305216773        0.25783064003367       -0.00988808367058
C            0.07575784463588        1.38933581065751        0.03714434919363
O            0.40132641381136        2.57127350610897        0.11608362156189
N           -1.31634673504010        1.02628241983487       -0.02495807508014
C           -2.28419230342380        2.11267810573269       -0.05774369131985
C           -1.85853353495168       -0.21849446296750       -0.08969573402249
O           -3.05192105482939       -0.41755179797004       -0.18834820206552
N           -0.96234914669034       -1.29871345484406       -0.02387323931602
C           -1.50272603527426       -2.64177519321323       -0.10122286826068
H            4.19493687708157        0.79834166801240        0.55628957713771
H            4.06144414375754        1.56833317631830       -0.99163140169451
H            2.90341893915806        2.06331562043450        0.37017515682681
H            3.51095555905620       -1.66886954186640        0.39406860641557
H           -1.72905234311049        3.04750479061084       -0.04016290285336
H           -2.89059894613431        2.04422200524457       -0.96160127902413
H           -2.94768193546779        2.05047524063733        0.80577256034749
H           -1.26437950964991       -3.21853599463220        0.79482766590888
H           -1.13692066660922       -3.16653609509680       -0.98708029901519
H           -2.58757827753555       -2.54514291386011       -0.17689070476218
H            1.30022950478840       -2.91314771267353        0.18123276562401
25
 energy: 8.509287762457 xtb: 6.6.1 (8d0f1dd)
C            3.37896392472356        1.17749514614963       -0.03939633959152
N            2.34315818149903        0.14012306079480       -0.01465144100978
C            2.58857317242762       -1.23115682204780        0.08509218460533
N            1.38738279717910       -1.91107279576201        0.14212057737711
C            0.37896233556198       -1.02969302074530        0.04420814678866
C            0.92199454480723        0.25766564891122       -0.00610125303346
C            0.07481164424578        1.38835918382251        0.03781695128114
O            0.40193873275517        2.57078977324217        0.11238521501671
N           -1.31732660915419        1.02668814299600       -0.02567632926395
C           -2.28460664016407        2.11330410760871       -0.05922139326350
C           -1.85850569010650       -0.21818271328824       -0.08926707264082
O           -3.05240409171098       -0.41847466656258       -0.18652712303030
N           -0.96233722942082       -1.29850979737668       -0.02308044073609
C           -1.50274445130651       -2.64141791445073       -0.10039112069659
H            4.20216847313292        0.79443113826732        0.55449825381442
H            4.05480656584497        1.57626496202737       -0.99011159963935
H            2.90332631926724        2.06271759793698        0.37764786503516
H            3.51106975480836       -1.66949387426691        0.39687647120078
H           -1.72842514458932        3.04747887179222       -0.04139807817957
H           -2.89020788418206        2.04491302912100       -0.96358628523641
H           -2.94872161052407        2.05115116625442        0.80374198817360
H           -1.26397964685640       -3.21839402604421        0.79560670931765
H           -1.13738918046927       -3.16632776641159       -0.98649253616279
H           -2.58774136571774       -2.54498516470837       -0.17569087699626
H            1.29944776588504       -2.91464466508787        0.17863142301708
25
 energy: 8.357825811847 xtb: 6.6.1 (8d0f1dd)
C            3.38175278886129        1.17795147980088       -0.04165124831780
N            2.34383389668869        0.13969109709033       -0.01839147342732
C            2.59100376678915       -1.23582639706633        0.07538038264707
N            1.38693147143961       -1.91328050326255        0.14196032478994
C            0.38023551276056       -1.03078733531725        0.04694094477050
C            0.92331543509281        0.25660624646159       -0.00058642462771
C            0.07392050266266        1.38706345726650        0.03807424122084
O            0.40265711866699        2.56950328795193        0.10779265328260
N           -1.31811754311188        1.02746548893622       -0.02566836982525
C           -2.28505030479098        2.11396162334220       -0.05980272576706
C           -1.85814878341999       -0.21795388227668       -0.08839248603303
O           -3.05238202968193       -0.41951218014027       -0.18419853838699
N           -0.96190315177847       -1.29813056145012       -0.02192506010216
C           -1.50319661537399       -2.64065308416743       -0.10020814378923
H            4.20418230336264        0.79793914811173        0.55658970255881
H            4.05218585655263        1.58396447021201       -0.98733536236993
H            2.90184766465264        2.06239338513163        0.38089359983546
H            3.51058700600955       -1.67170819182845        0.40165305811751
H           -1.72828379937214        3.04766604096938       -0.04182866380449
H           -2.89002306862335        2.04556695724079       -0.96461911579164
H           -2.94998969446064        2.05159829851031        0.80246070019655
H           -1.26500918045933       -3.21855732114422        0.79527471061063
H           -1.13866317871633       -3.16522894141112       -0.98689353108471
H           -2.58831684584220       -2.54363821678684       -0.17533025829537
H            1.29884554002812       -2.91706576400214        0.17684497974004
25
 energy: 8.108539302722 xtb: 6.6.1 (8d0f1dd)
C            3.38289881693933        1.17834569122287       -0.04307803624329
N            2.34407460189049        0.13924599873546       -0.01990518009841
C            2.59198287657827       -1.23758095584884        0.06869027521213
N            1.38701958172545       -1.91378898502743        0.14194444778751
C            0.38057357284287       -1.03101707916438        0.04885891442229
C            0.92422417917807        0.25606809314123        0.00211661343187
C            0.07350298810035        1.38683260263620        0.03771790821412
O            0.40255296360799        2.56898936902425        0.10690190894746
N           -1.31801348191970        1.02779747814533       -0.02519669145431
C           -2.28516666544840        2.11393365486479       -0.05947682034399
C           -1.85792654975457       -0.21806595747805       -0.08798226032675
O           -3.05211075234754       -0.41963784982816       -0.18406129027508
N           -0.96151066575512       -1.29783524608130       -0.02105147281734
C           -1.50331599869468       -2.64028548411064       -0.10051793110878
H            4.20565684468163        0.80007668672717        0.55861492776219
H            4.05043995680138        1.58463280281921       -0.98523404852716
H            2.90176335444904        2.06126682990850        0.37737578867662
H            3.50888737142921       -1.67093065028361        0.40729193639981
H           -1.72882315360055        3.04782520951553       -0.04148921760603
H           -2.89011759985395        2.04541918928982       -0.96436265273555
H           -2.95035077468402        2.05126181578497        0.80259238181228
H           -1.26598367933791       -3.21885706883519        0.79453036756140
H           -1.13882691570277       -3.16429558284944       -0.98751047740016
H           -2.58842723387053       -2.54276657344627       -0.17599764123901
H            1.29921103068174       -2.91760538668996        0.17626214609540
25
 energy: 7.833741833795 xtb: 6.6.1 (8d0f1dd)
C            3.38384395777437        1.17801231226749       -0.04573527209868
N            2.34457531842579        0.13806358558618       -0.02220175409723
C            2.59277246677846       -1.23905333241020        0.06001052542037
N            1.38725940133166       -1.91387893008802        0.14175378795156
C            0.38063295938911       -1.03088885235636        0.05075490015037
C            0.92550892683374        0.25551854390730        0.00329358747457
C            0.07372108946417        1.38692280452512        0.03725065369895
O            0.40248639910177        2.56852711131621        0.10762027757557
N           -1.31704094323874        1.02794496277106       -0.02432691036142
C           -2.28477681140475        2.11357711745629       -0.05882581151593
C           -1.85748062468284       -0.21831000583783       -0.08780813324084
O           -3.05140770832747       -0.41904877996357       -0.18525411739583
N           -0.96096350537017       -1.29748820655259       -0.01980497969158
C           -1.50326369290068       -2.63998928367040       -0.10067628807164
H            4.20404444981456        0.80217666103718        0.56054501259938
H            4.04934212891549        1.58382147168688       -0.98496627312379
H            2.90099607463237        2.06034844950058        0.37501309366221
H            3.50556870146100       -1.66862402740510        0.41623856849414
H           -1.72950285169262        3.04806132268193       -0.04092996513652
H           -2.88999287742617        2.04470933046506       -0.96359469722522
H           -2.95001269378107        2.05058605982966        0.80324039109621
H           -1.26709700094468       -3.21919359026826        0.79394632604235
H           -1.13841762397989       -3.16327466769220       -0.98784482061970
H           -2.58827753767244       -2.54184382919226       -0.17696162856792
H            1.29969666543509       -2.91764762542206        0.17629742312783
25
 energy: 7.657778117604 xtb: 6.6.1 (8d0f1dd)
C            3.38348092024395        1.17752979691726       -0.04718916387009
N            2.34476402940978        0.13715579988693       -0.02327557272718
C            2.59315956952618       -1.23949135239338        0.05425072664032
N            1.38730848188271       -1.91349108706790        0.14133289437931
C            0.38040691981842       -1.03038830302533        0.05147156065763
C            0.92610263271478        0.25546297563786        0.00244578160727
C            0.07429218507630        1.38722093484361        0.03747662861565
O            0.40234651952057        2.56850471706098        0.10981400739547
N           -1.31602953418997        1.02776538084512       -0.02355137864509
C           -2.28421434133121        2.11317706461713       -0.05822030608458
C           -1.85714658230248       -0.21854402346183       -0.08805732264553
O           -3.05084344433299       -0.41826949974054       -0.18719293075266
N           -0.96066347918366       -1.29732589330144       -0.01899290777120
C           -1.50297037999603       -2.63998858990929       -0.10063170513610
H            4.20245816827103        0.80299610489605        0.56158515870064
H            4.04918047726554        1.58141434378553       -0.98595822719795
H            2.90020441824328        2.05975040688918        0.37246321406522
H            3.50215821796346       -1.66556666536011        0.42389886852110
H           -1.72972572812264        3.04813965893995       -0.04037869842553
H           -2.88964707437406        2.04398211919613       -0.96283873981720
H           -2.94930612613124        2.05003662082278        0.80399868271167
H           -1.26733746788000       -3.21939226753987        0.79385326603947
H           -1.13756289140689       -3.16285511925936       -0.98774912864957
H           -2.58787239464973       -2.54164345979197       -0.17757363669582
H            1.29967157190102       -2.91715106131539        0.17605282523201
25
 energy: 7.591139903981 xtb: 6.6.1 (8d0f1dd)
C            3.38254616622846        1.17708520253239       -0.04766352106471
N            2.34475268345891        0.13664257851076       -0.02391338780228
C            2.59371195356640       -1.23987707471232        0.05020076200924
N            1.38714763469770       -1.91326526162420        0.14051367010652
C            0.38032192374918       -1.02995475686866        0.05111565814088
C            0.92622060077198        0.25559751267391        0.00078291701315
C            0.07480883820182        1.38740099175629        0.03807120029484
O            0.40232624180824        2.56860253177632        0.11166817761929
N           -1.31544378912177        1.02755853822599       -0.02311927086306
C           -2.28378508380378        2.11302947828059       -0.05784166561180
C           -1.85689641046612       -0.21863863157332       -0.08833512627558
O           -3.05049993579917       -0.41781564538430       -0.18847439048689
N           -0.96049564343567       -1.29730403354715       -0.01866310508531
C           -1.50261685297871       -2.64007639914527       -0.10036554919484
H            4.20111530862047        0.80316178437248        0.56179899885614
H            4.04973873385870        1.57954873733404       -0.98718182471728
H            2.89932997139766        2.05975062341326        0.37141030861992
H            3.49956897518192       -1.66311823601082        0.43059011201267
H           -1.72948907961453        3.04812703149135       -0.04005682279227
H           -2.88928445106470        2.04362363072442       -0.96235692641339
H           -2.94869783809528        2.04991605380266        0.80452698976328
H           -1.26684104994690       -3.21940230915725        0.79415669165609
H           -1.13694591437277       -3.16288158049637       -0.98739218225095
H           -2.58746126377186       -2.54183858054749       -0.17746036986546
H            1.29908294886590       -2.91684358365526        0.17502255247897
25
 energy: 7.614493846967 xtb: 6.6.1 (8d0f1dd)
C            3.38164265075092        1.17689275358011       -0.04725904064306
N            2.34462308896342        0.13657002039370       -0.02379054162285
C            2.59441132407238       -1.24031625335644        0.04805783574154
N            1.38697221137089       -1.91334438129908        0.13982576884251
C            0.38046938614856       -1.02982716938677        0.05037405438964
C            0.92609681985911        0.25567950749969       -0.00031346151468
C            0.07500424253863        1.38739217924269        0.03865099316009
O            0.40239960180041        2.56859844066524        0.11242723648150
N           -1.31538983381580        1.02748727622745       -0.02305379010206
C           -2.28366187415823        2.11313430913183       -0.05773499923607
C           -1.85676655030068       -0.21860631478611       -0.08840207164028
O           -3.05040266793584       -0.41784843115814       -0.18861219079106
N           -0.96037254081649       -1.29736623042246       -0.01872297501308
C           -1.50237890116538       -2.64013696539189       -0.10013630265123
H            4.20060723491791        0.80325763953491        0.56185556541668
H            4.05078628358908        1.57848880048744       -0.98796810083353
H            2.89861661491826        2.06019199962731        0.37087041106518
H            3.49808869751262       -1.66173920822231        0.43460002451626
H           -1.72913151390178        3.04809752705290       -0.04000630605435
H           -2.88911583985602        2.04366832389360       -0.96221967262031
H           -2.94846469540693        2.05013505436746        0.80469826511308
H           -1.26615562794877       -3.21931478681612        0.79447507773443
H           -1.13681844433094       -3.16308363587358       -0.98714248387161
H           -2.58724162400009       -2.54209752366127       -0.17697563093680
H            1.29839662513083       -2.91688432915813        0.17353623121731
25
 energy: 7.687382269383 xtb: 6.6.1 (8d0f1dd)
C            3.38114331666548        1.17696847137230       -0.04647412522573
N            2.34440282091190        0.13686315424906       -0.02333253682164
C            2.59523144287599       -1.24087063273993        0.04652456075369
N            1.38689150172761       -1.91370763783339        0.13923426220067
C            0.38081177810488       -1.03005060525868        0.04954780302918
C            0.92595643496486        0.25556480895373       -0.00045462082674
C            0.07479894067301        1.38721074956928        0.03882004084860
O            0.40253690610464        2.56840220720740        0.11192790603156
N           -1.31570511058671        1.02760494468371       -0.02329543564255
C           -2.28381532360239        2.11339587049849       -0.05777740748875
C           -1.85672984583199       -0.21848329995731       -0.08814393863567
O           -3.05048210733647       -0.41826499883970       -0.18745545567962
N           -0.96022458627169       -1.29742716677604       -0.01903665961352
C           -1.50231338027632       -2.64010183127638       -0.10003731252211
H            4.20066688748021        0.80329484553514        0.56189070924893
H            4.05207617935426        1.57838139366286       -0.98819817106000
H            2.89823047774737        2.06095266717581        0.37061142412410
H            3.49759392722810       -1.66139009144424        0.43758457092328
H           -1.72891297784001        3.04812625530358       -0.04012109205874
H           -2.88923371440167        2.04399478756150       -0.96225868465753
H           -2.94856087187719        2.05047665010617        0.80465866333583
H           -1.26562036366365       -3.21919519846358        0.79460756620453
H           -1.13719136221326       -3.16324354864541       -0.98713881386194
H           -2.58725500782273       -2.54219714538734       -0.17636266515410
H            1.29791870582184       -2.91727604708496        0.17171330869548
