72
 energy: -99.350911268137 gnorm: 0.004409035183 xtb: 6.6.1 (8d0f1dd)
N           -1.82952044514874        2.59406930617692        2.25010372796874
C           -1.72412548347647        2.06232532337063        1.12233668262162
C           -2.87736923717616        1.86649372607408        0.17187462006127
C           -3.38970679195359        0.44485029201194        0.27532758740863
C           -4.35189189351586       -0.01730680796597       -0.57686653995312
C           -4.87669453570224       -1.31532395505261       -0.49905919029837
O           -5.84164931352150       -1.80839228203736       -1.27900335127191
C           -6.47158153327665       -0.98889993288689       -2.23832754715281
C           -4.36608500052036       -2.22944480835771        0.49209950466600
O           -4.92018432231419       -3.45810540642903        0.44270376702635
C           -4.53101840727447       -4.41724880065586        1.39913765884781
C           -3.41716772197070       -1.81153870945642        1.36390241373577
C           -2.86727945256086       -0.43078111771288        1.35983677302312
C           -2.34080547721763        2.14217796941983       -1.25965672275590
C           -1.45850352947971        1.03140531108779       -1.85829507547732
C           -0.09461438891761        0.96747169862708       -1.26778594420876
N            0.50659981676202       -0.12818430018285       -0.81607416454606
C            1.89022820106988        0.02420179353551       -0.37249072467444
C            2.87660385168665       -0.23189331246021       -1.52182251299783
C            4.28458400446320       -0.04423890420473       -1.02720034324439
C            4.93757149770179        1.16715651395242       -1.18289342527910
C            6.21920051852855        1.35206773962370       -0.68675699223178
C            6.87201863091975        0.32753580618106       -0.01671142507527
O            8.10777885133112        0.39606714749201        0.51211524033366
C            8.84044199519943        1.59412411354871        0.39633204451630
C            6.21055042084960       -0.92156121820171        0.14564802229668
O            6.91709727421854       -1.86289595119977        0.80277107487880
C            6.35310025934595       -3.13779643449174        0.99645072985276
C            4.93025662610489       -1.08250966693002       -0.35950814057116
C           -0.00691109960311       -1.34850915944629       -0.73655390261752
C           -4.06713231343783        2.84057674092898        0.46769735526865
C           -4.76866831401179        2.50678126174924        1.78217553771558
C           -3.64237584629410        4.30624453278514        0.47271427026150
H           -4.73648632473407        0.63964922551600       -1.34052596673681
H           -6.93699599984483       -0.11501399046273       -1.77361679798462
H           -7.24276778217026       -1.61006670443226       -2.69018046663233
H           -5.77007720289588       -0.66515355565181       -3.01292994911391
H           -4.73477740550799       -4.07178286103964        2.41658718270317
H           -5.13161446098231       -5.29982887237937        1.18922194833722
H           -3.47003669090202       -4.66823868333399        1.30264415350387
H           -3.03054070295805       -2.47082899070530        2.12392140891586
H           -3.09943789221825        0.04480748529358        2.32673434941374
H           -3.18983795638799        2.29097792808969       -1.92623523621427
H           -1.77083862402677        3.07161901006767       -1.24320114769067
H           -1.97250026388345        0.07622441231197       -1.77128615859116
H           -1.35584919884714        1.25558344016330       -2.92711403586391
H           -0.77037084020897        1.70005412094773        0.70173472283633
H            0.50568524267211        1.86150562245862       -1.31600284256473
H            2.08421353069294       -0.68245007382350        0.43636978636201
H            2.04079478334153        1.03550644432458        0.01119977003269
H            2.67012313157297        0.46507089189009       -2.33547674617137
H            2.73672312334037       -1.24775141732215       -1.89543416632226
H            4.45387966954016        1.97926818547903       -1.70394493500323
H            6.70427869460666        2.30357140863915       -0.83011354340613
H            8.32649790034242        2.42696283191496        0.88591863106579
H            9.03174944395790        1.84690399118507       -0.65083805378394
H            9.78643545087255        1.40739871673264        0.90101784196768
H            7.10730403558059       -3.71297010010233        1.52995956779651
H            5.44301352711525       -3.08593248114186        1.60289731084267
H            6.13144935789524       -3.62805070272448        0.04345199001916
H            4.42269627626362       -2.02799472160386       -0.24909700716598
H           -0.99000145860636       -1.56433551051550       -1.09967057133400
H           -1.76917553320534       -0.46963970887271        1.33175641553768
H            0.59024195963271       -2.14080744114122       -0.33548754198112
H           -4.78936550266548        2.70162747834222       -0.34425117317478
H           -4.07502561121262        2.60951224421876        2.61041098600927
H           -5.17134954992353        1.49667238117074        1.77136958334287
H           -5.59302355073779        3.19823568256850        1.93618730123513
H           -2.92826809434460        4.49217939142541        1.26902599500158
H           -3.20686627522912        4.60692437119653       -0.47612871604667
H           -4.51529928808749        4.92913353803338        0.64989983958556
H           -0.98081116165590        2.69667802689685        2.79827010574865
