25
 energy: -42.184887472237 gnorm: 0.009889705622 xtb: 6.6.1 (8d0f1dd)
C            3.27493989654032        1.05453397225055       -0.01775087633165
N            2.32045470111928       -0.01644091459216       -0.04091380410411
C            2.58368548197972       -1.32891365085242       -0.02284137720133
N            1.41940615358024       -2.03376080150358       -0.02541001533037
C            0.39260884529903       -1.14383393238396       -0.04267288209142
C            0.95214841524463        0.14600769589672       -0.05188180428898
C            0.14878906362150        1.28176975851083       -0.08630102292129
O           -1.89693058173750        2.92693202861731        1.08387755646006
N           -1.17455386459438        1.03049540037018       -0.11297216040373
C           -2.05952449115736        2.20628764841917       -0.08317846239858
C           -1.79510896736321       -0.22294097820281       -0.11843883282315
O           -2.98731704006855       -0.36113191833307       -0.18116984004553
N           -0.93945648280851       -1.34134145442268       -0.06458289705121
C           -1.51894772829210       -2.66868311636689       -0.03920477283115
H            3.56523656972922        1.28714642309189        1.00935430923641
H            4.16421204660761        0.77902589132912       -0.58190830501439
H            2.81652127602606        1.93873033914335       -0.45715384560049
H            3.56045474279359       -1.76617629193172       -0.01428713675734
H           -1.83460318513901        2.81198868513023       -0.96679429992133
H           -3.09328122333159        1.85640837843761       -0.11307748459935
H           -1.05682900742565        3.41271504183538        1.07498176027479
H           -1.21705078177070       -3.19635382366512        0.86634292124173
H           -1.21529606101438       -3.23525377528575       -0.92064825838549
H           -2.60265997026351       -2.55774603050182       -0.04429979277332
H            1.35353370652511       -3.04122603339091       -0.01789705843984
