72
 energy: -99.612373599847 xtb: 6.6.1 (8d0f1dd)
N           -1.50854112381692        3.37099640645172        2.17491939978273
C           -1.76104489404249        2.29418022604341        1.54102065539010
C           -2.99510081158194        2.04182981744058        0.90802457056822
C           -3.39548723996096        0.68450504579907        0.69758989851118
C           -4.38043836418410        0.34620432899242       -0.26451183012468
C           -4.79927489452470       -0.94734504420904       -0.45306607603237
O           -5.72756650181959       -1.34750475809829       -1.36947861926401
C           -6.39869419100471       -0.37964278845074       -2.12649895633523
C           -4.24240196655282       -1.98730406678402        0.32197405095706
O           -4.74251434004440       -3.23654123496184        0.07889159360836
C           -4.32699741812824       -4.28400025938250        0.91190019486698
C           -3.28379783941531       -1.66783505581390        1.26706056956213
C           -2.85973328088964       -0.36572845236362        1.45226144577819
C           -1.95151292433043        2.20471409390103       -2.09602731748447
C           -1.36099330567208        0.90660734015976       -1.74623103683211
C            0.00641281633497        0.90825708534944       -1.23170017779845
N            0.58918630078348       -0.13714995499469       -0.64900401431407
C            1.96063343674326       -0.07888148661092       -0.21301445219283
C            2.93148558061310       -0.64132047189011       -1.27555997667886
C            4.35388027223997       -0.50897434826580       -0.81734570925923
C            5.04970599795296        0.66658505187366       -1.02098259525376
C            6.35213115696829        0.80626371674632       -0.56224214412540
C            6.97772166374369       -0.23005830502674        0.10891355515851
O            8.25238721759423       -0.20949778054799        0.58273716212658
C            9.02867695188981        0.94240435934794        0.36829682671208
C            6.26956791354426       -1.43379518871958        0.33029712626175
O            6.96334864969201       -2.39899791817420        0.99160924561388
C            6.34029265614995       -3.63583032037238        1.22066350227352
C            4.97076563833286       -1.55282504714492       -0.12945052609054
C           -0.08228897448082       -1.40690749274485       -0.64810301562298
C           -4.05908633633841        3.09829273191664        0.89127013814619
C           -4.45628144469155        3.34159114345859        2.32775776682109
C           -3.59578319338389        4.39374924342791        0.23844672604562
H           -4.79217777690011        1.12520395026717       -0.88641368493810
H           -6.92870418287847        0.33252504389490       -1.48538508603260
H           -7.12025913829347       -0.92288507079656       -2.73557726701361
H           -5.70640756820799        0.15026193422169       -2.78878932038276
H           -4.55507046573245       -4.08179385005616        1.96248160835656
H           -4.88874199845067       -5.15727384644067        0.58353427693245
H           -3.25219821787955       -4.47932659344652        0.80342994169534
H           -2.86862991988675       -2.42542793231223        1.90578982894406
H           -2.14743930875242       -0.15929589418798        2.23284709798140
H           -2.79090118356312        2.19200139977011       -2.75628679677555
H           -1.33566322096420        3.07230562461386       -2.06995068188981
H           -2.04661431663155        0.35616803985470       -1.08421733399099
H           -1.33119827130726        0.50043508609968       -2.74915496721498
H           -1.00673290517048        1.48184391858343        1.45068503708733
H            0.59084645131410        1.82394784870473       -1.27565687513107
H            2.04862547643083       -0.63811350644257        0.71935051430799
H            2.22757948363964        0.95900610107423       -0.01147043510218
H            2.77438428929622       -0.08095272721550       -2.19889885450143
H            2.68715809146879       -1.68818751895644       -1.46205263126054
H            4.58348196317757        1.48799233012121       -1.54689847104591
H            6.87080780644710        1.73409348341456       -0.74558459301529
H            8.59067713026591        1.81906073477547        0.85804657859124
H            9.15925367564705        1.15071919699541       -0.69871577962749
H            9.99790900044282        0.73044092986022        0.81620664176164
H            7.08363967544637       -4.24521210855874        1.73463799210645
H            5.45681494805153       -3.53480638730797        1.86098768798852
H            6.05674109906434       -4.12742186109384        0.28473185420828
H            4.41571474930467       -2.46387465449264        0.03489593341922
H           -0.22175844094952       -1.77094662826267       -1.66972274288132
H           -1.06948483851573       -1.31538993512155       -0.18625416630068
H            0.49924912700513       -2.12968184593602       -0.08231430518393
H           -4.94373044314124        2.73986988481026        0.35821204724563
H           -3.59861827714452        3.67343172868157        2.88664339789583
H           -4.82891478537814        2.42335104287288        2.77344796854774
H           -5.23099528011207        4.09760969938728        2.33628631512740
H           -2.72399483201456        4.73996089881820        0.79502603715167
H           -3.33662907292584        4.20773888546853       -0.79992531230276
H           -4.38232340890266        5.14112137965786        0.30400779890071
H           -0.60024654408628        3.39958744271819        2.61713783537236
