25
 energy: -42.222663191367 gnorm: 0.005972516233 xtb: 6.6.1 (8d0f1dd)
C            3.13427255232305        1.94498786180761        0.01368394971919
N            2.65018888554665        0.59204255083954        0.10987951937493
C            3.37517682653727       -0.51021257443607        0.25796053764507
N            2.57652322745660       -1.59310549376576        0.30016037345880
C            1.28124638376305       -1.17192954810286        0.17345300584102
C            1.33268347079606        0.21305650321824        0.05288326706153
C            0.11775890176168        0.96480173265393       -0.07865550464166
O            0.01917356227625        2.16531131387233       -0.17358341676937
N           -1.02763707839866        0.11803917241277       -0.08215656042258
C           -2.28503746852332        0.85021346411681       -0.19057993175473
C           -0.96594078876924       -1.24911256036780        0.03010240703113
O           -1.97307097072040       -2.07375677934413        0.03207576537950
N            0.17362166690199       -1.90052274613936        0.16006090856023
C           -3.37318611037653       -1.87874228534260       -0.12776553972802
H            3.75572005627180        2.18891317583516        0.87507016979377
H            3.72601428065773        2.07330633120968       -0.89347840938152
H            2.27861600285639        2.61844663176112       -0.02049337684606
H            4.44572738281484       -0.53206025337677        0.33341763643083
H           -2.02693108918439        1.89760841023047       -0.34875990212736
H           -2.86754709614166        0.50692394970448       -1.03937915620319
H           -2.85244882902379        0.77814252677409        0.73466889339683
H           -3.79439957203811       -2.86565269751887        0.06845976075505
H           -3.62288006176492       -1.59271358875498       -1.15005447930902
H           -3.79173294042694       -1.17301163240759        0.58621373094880
H            2.87452031950148       -2.55273492328188        0.40798796968202
