25
 energy: 54.147062989832 xtb: 6.6.1 (8d0f1dd)
C            2.96684437546131        1.19165785476259        0.06944513097771
N            2.19637853085433       -0.02198027560950        0.02536624562658
C            2.66581076947624       -1.26307156522367        0.01896148376335
N            1.62403068518454       -2.13405947387489       -0.00583270246249
C            0.45867739046932       -1.40489232830782       -0.01430364076867
C            0.83019661938501       -0.06846275737715        0.00911831945607
C           -0.20793592199528        0.99187447019407       -0.02831576534255
O            0.10173817378547        2.17467223276814       -0.04835555057336
N           -1.45413268585382        0.51246468944693       -0.04529505630503
C           -2.33673721725098        3.97044661610372        0.00558690060899
C           -1.86208161318478       -0.72649590675724       -0.05029175035641
O           -2.99107288454827       -1.14258208823842       -0.06385933667924
N           -0.79783139414180       -1.81811561510175       -0.04308922007346
C           -1.19372570357335       -3.20132545260494       -0.06680731925045
H            3.22175570576563        1.43968766585126        1.10148862342142
H            3.88321055866660        1.07865325463156       -0.50799835969590
H            2.35328065204660        2.00031298502228       -0.33064002080787
H            3.69693976359167       -1.54534152267677        0.02924754934145
H           -1.27316558738003        4.05881271020515        0.04434549822591
H           -2.82760736775858        3.87215967359549       -0.93837182438759
H           -2.89027583881773        3.79730447113826        0.90290059645060
H           -0.85075459446559       -3.72470652746086        0.82907513592935
H           -0.81656487105943       -3.70500390883327       -0.96028110407997
H           -2.28522533785421       -3.20515951196719       -0.08744690231436
H            1.70046209817032       -3.13782090094095       -0.01761301850925
