25
 energy: 55.681478057394 xtb: 6.6.1 (8d0f1dd)
C            2.97385275427629        1.20400949538658        0.07762269088623
N            2.20267163546899       -0.01432106038493        0.04457807095005
C            2.66101396185726       -1.26724597957006        0.04734634911920
N            1.59826792803268       -2.12365003299852       -0.00970178875188
C            0.44784309975512       -1.36938619102424       -0.01794108532058
C            0.83809397214307       -0.04404744231319        0.03594652955058
C           -0.18873412075063        1.04587160140213       -0.05332538770477
O            0.16644581695726        2.20521735414819       -0.17073206959143
N           -1.43592330457661        0.59582846454837       -0.04291304118291
C           -2.28914695061042        3.65322474941473        0.04294052347572
C           -1.85680451756163       -0.64603487656118       -0.03487495676095
O           -2.99813370895496       -1.02733136324352       -0.03742660693320
N           -0.82062956983089       -1.75151717590981       -0.04585729591656
C           -1.23252776021678       -3.12800117414919       -0.07342604503848
H            3.06922635343563        1.57340620629644        1.09855417320754
H            3.93964684467080        1.04484438721127       -0.38614852211691
H            2.43465268109512        1.96090497632846       -0.49100435237228
H            3.68889073427038       -1.55281872588970       -0.03639949486846
H           -1.26829156554314        3.94922142767944        0.14151631199531
H           -2.74881725713303        3.61489134863914       -0.91989221642754
H           -2.91120418340909        3.53275868353599        0.90548950103435
H           -0.88894183079852       -3.65259406258576        0.82274070566743
H           -0.85201439906133       -3.62919748820957       -0.96733497268373
H           -2.32972748230056       -3.10818797240880       -0.09622263431384
H            1.66599465983147       -3.13103845273031        0.01041133123907
