25
 energy: 55.700531857950 xtb: 6.6.1 (8d0f1dd)
C            3.03864627869412        1.21816108705877        0.09757760954975
N            2.20451765902692        0.04750174340971        0.00959366812951
C            2.61097952854675       -1.25408175377694        0.14833162948622
N            1.47724314832800       -2.05344057248139        0.01763904196956
C            0.38101749031763       -1.23370872724297       -0.01800054368289
C            0.82144546595594        0.06595299875340       -0.01153237266011
C           -0.08189934824811        1.18602826557014       -0.07894729196079
O            0.37966333712298        2.31940518621907       -0.18440714869355
N           -1.41772983016869        0.88924117059211       -0.02733443178470
C           -2.13650699191344        2.90163554418314        0.02065737829832
C           -1.90208570434903       -0.38979047321508       -0.02665338810426
O           -3.06670663537729       -0.71326602645100       -0.03338509157633
N           -0.92964742799184       -1.51263231854816       -0.04345455158071
C           -1.33219412089996       -2.89503422003448       -0.06428950677839
H            3.26677769410577        1.45449361182971        1.13780172400266
H            3.97316515601591        1.04730294117548       -0.41139950660756
H            2.43371208029707        2.03571379484846       -0.32163399426553
H            3.58749884264886       -1.56032182134022       -0.14590224075624
H           -1.19353181819556        3.39469231064524        0.09130358369753
H           -2.63422970582198        2.93656942347737       -0.91384847880578
H           -2.71298988200428        2.89251740026607        0.90212778382032
H           -0.92741425570734       -3.39624942423047        0.82194976562782
H           -0.89990745901448       -3.37670561176804       -0.94626532239882
H           -2.42907502817243       -2.89997782003808       -0.08050182807761
H            1.51359909806127       -3.05929645323133       -0.00399733193959
