25
 energy: 56.222472263385 xtb: 6.6.1 (8d0f1dd)
C            2.97716882186875        1.21225809531642        0.07631849739736
N            2.20374938317400       -0.00613787466097        0.04242175072840
C            2.65850845863222       -1.26320679245510        0.06866651626025
N            1.58941481681566       -2.11317013706355       -0.00391779741321
C            0.44226536200865       -1.35474060855048       -0.01931172768180
C            0.83950221916969       -0.03304674176182        0.02559207579239
C           -0.17847800694697        1.05537276395668       -0.06584996376092
O            0.19839363284800        2.21020488931705       -0.18611594715418
N           -1.42970771525718        0.62693946754142       -0.04178846004676
C           -2.27361005765252        3.57050572609015        0.04170541974969
C           -1.85648627190521       -0.61516364677740       -0.03514553385487
O           -3.00074254396052       -0.98719063061562       -0.03715777486811
N           -0.83081960550335       -1.72499286020677       -0.04574073967718
C           -1.24739330966022       -3.10077570411496       -0.07341862346143
H            3.03651688578953        1.60949113132307        1.09131325175114
H            3.95756866653451        1.03865385513144       -0.35384578113098
H            2.45545988462096        1.95587291160550       -0.52255997522054
H            3.68220331630681       -1.55231588110584       -0.07594981151223
H           -1.25931593795094        3.88049407571930        0.13571483418795
H           -2.73504884354344        3.52789472321746       -0.91758057446927
H           -2.89090245479004        3.44949305492188        0.90549329567166
H           -0.89611008939571       -3.62146508075749        0.82150627823339
H           -0.85948065761869       -3.59755116031901       -0.96614495270064
H           -2.34666256765643       -3.09126501310454       -0.09888067430708
H            1.65289710637216       -3.12046382098896        0.01600492805681
