25
 energy: -42.222789099641 gnorm: 0.003068745958 xtb: 6.6.1 (8d0f1dd)
C            3.13104873299979        1.94008972676250       -0.02201632135747
N            2.64745799164499        0.59110217052717        0.11173187199364
C            3.37077014929703       -0.50683373305567        0.29721370109540
N            2.57159756925552       -1.58783183272664        0.36282926816631
C            1.28148739785808       -1.16822573316937        0.21361714972380
C            1.33011830586086        0.21201214480223        0.05319768406468
C            0.11585152395745        0.96182018068134       -0.10234675066558
O            0.02300920614839        2.16000090477294       -0.22793374778685
N           -1.03333798967521        0.11945353877271       -0.08533263653122
C           -2.28915832127140        0.85837652642993       -0.19104048692247
C           -0.96530189110794       -1.24524520401709        0.05494095321634
O           -1.96863869675220       -2.07856334276448        0.07126596308365
N            0.17509111212466       -1.89352762068540        0.20890572917307
C           -3.36111573918359       -1.88847083437692       -0.15240765201385
H            3.77836416806115        2.19622483174549        0.81603722955432
H            3.69479993851116        2.05030513386135       -0.94915494893420
H            2.27556829061525        2.61425836277935       -0.04416900482305
H            4.43996178586134       -0.52895343966535        0.38392038622676
H           -2.02471787911256        1.90659130323720       -0.33814435285176
H           -2.87331874004286        0.53030201801927       -1.04544629012986
H           -2.86168182560322        0.78132109372580        0.73090260493071
H           -3.78803168585265       -2.87440628920328        0.03552422728382
H           -3.56470933973701       -1.61165950736489       -1.18809492461318
H           -3.81045629357301       -1.17510692316511        0.53624396970615
H            2.86577374381291       -2.54479493437001        0.50092799632040
