  72
        -99.29653937
 N         -1.7421010281        2.7068244465        2.5027014738
 C         -1.7414080061        2.0683724797        1.4299779089
 C         -2.8989075988        2.0081530129        0.4727457794
 C         -3.4678897153        0.5977829184        0.4540810766
 C         -4.4465839595        0.2615007804       -0.4766235624
 C         -4.9733877739       -1.0243330911       -0.5451618309
 O         -5.9240063136       -1.4287432364       -1.3923445626
 C         -6.3694461919       -0.5600233949       -2.4087026039
 C         -4.5112613223       -2.0199095507        0.3690701902
 O         -5.0745216653       -3.2262980642        0.2362982679
 C         -4.6374010010       -4.2908698381        1.0492740445
 C         -3.5446272109       -1.6675328336        1.3013403247
 C         -3.0369800483       -0.3794913236        1.3443243632
 C         -2.3249742930        2.3569781501       -0.9268710781
 C         -1.4780433527        1.2505735825       -1.5795785033
 C         -0.1337442766        1.0946185286       -0.9716993673
 N          0.4626618832       -0.0571440346       -0.6642685860
 C          1.8594734222        0.0155447923       -0.2384024205
 C          2.8015097069       -0.2473486336       -1.4242626139
 C          4.2369713858       -0.1673772259       -0.9827323814
 C          4.9455539604        1.0207726163       -1.0824212480
 C          6.2672726310        1.0975822353       -0.6726209413
 C          6.9085801886       -0.0149393627       -0.1441830750
 O          8.1832347695       -0.0633450247        0.2737568937
 C          8.9922423287        1.0866733762        0.1727539169
 C          6.1846684975       -1.2366760611       -0.0235016300
 O          6.8797263626       -2.2594274358        0.5043806433
 C          6.2686422482       -3.5212877573        0.6375464674
 C          4.8641931083       -1.2884234531       -0.4448497998
 C         -0.0697326540       -1.2667575356       -0.7327931890
 C         -4.0435845158        2.9996829455        0.8395878493
 C         -4.7060119966        2.6245997611        2.1625645089
 C         -3.5882752434        4.4552312427        0.8868580747
 H         -4.7911905625        1.0032567419       -1.1778222383
 H         -6.8652740631        0.3233180145       -1.9932892585
 H         -7.0879943852       -1.1341491521       -2.9912151525
 H         -5.5407196238       -0.2523437113       -3.0530499732
 H         -4.8298628331       -4.0916270983        2.1078335723
 H         -5.2168565881       -5.1567012758        0.7340968716
 H         -3.5722843023       -4.4924439740        0.9017579539
 H         -3.1757862012       -2.3984238432        2.0026527391
 H         -2.2984461095       -0.1431033103        2.0945806493
 H         -3.1572731166        2.5785706942       -1.5940682424
 H         -1.7209432387        3.2622753650       -0.8423060473
 H         -2.0338003181        0.3091615854       -1.5875588488
 H         -1.3339323622        1.5464103936       -2.6274603585
 H         -0.8669670385        1.5117028265        1.0472432010
 H          0.4760639851        1.9825226796       -0.8942860438
 H          2.0345671990       -0.7288678376        0.5416953385
 H          2.0671641417        1.0045619901        0.1767860840
 H          2.6109961713        0.4938848753       -2.2029108193
 H          2.5899284048       -1.2367361098       -1.8348811885
 H          4.4727118297        1.8976317797       -1.4976586418
 H          6.7954800725        2.0311974780       -0.7754366399
 H          8.5878298947        1.9145498971        0.7625588856
 H          9.1097960901        1.4016405085       -0.8684600740
 H          9.9616353896        0.7969684810        0.5740317177
 H          7.0342785606       -4.1732221175        1.0537517703
 H          5.4155728539       -3.4827476396        1.3223662408
 H          5.9452166800       -3.9147626047       -0.3307137044
 H          4.3131402766       -2.2129746001       -0.3722987171
 H         -2.8318450608       -1.4612756720       -1.7387096056
 H         -1.0784848144       -1.4244001308       -1.0809694362
 H          0.5207680417       -2.1086918921       -0.4299823159
 H         -4.7969198150        2.9088679585        0.0490097687
 H         -3.9953843198        2.7277567119        2.9769035376
 H         -5.0742635010        1.6016471250        2.1430087038
 H         -5.5457077770        3.2885627211        2.3510728120
 H         -2.8384121656        4.5910794754        1.6603078828
 H         -3.1844376481        4.7861056073       -0.0658091744
 H         -4.4394645404        5.0876252373        1.1251927414
 H         -0.8994682654        2.7071210093        3.0678506277
