25
 energy: 26.381907260621 xtb: 6.6.1 (8d0f1dd)
C            3.17017025298250        1.53959731544769        0.10900101551490
N            2.45172784041806        0.04479722403337        0.06017303405079
C            2.66999457366309       -1.38231150252669        0.10078531819594
N            1.45512228433521       -2.08702970340082        0.03157574328153
C            0.44470759373787       -1.19245572052312       -0.00663698728585
C            1.02851163406808        0.08427160001643        0.01311830649193
C            0.20749063482088        1.23064147152853       -0.03040428243612
O            0.58309010236755        2.40413533278303       -0.06987711851029
N           -1.18686095423902        0.95012444056660       -0.04474813337292
C           -2.07884171420914        2.10167066359883       -0.04316389374232
C           -1.77461538899139       -0.26929803915557       -0.06271628379094
O           -2.98252346055377       -0.40025465095204       -0.08467215500259
N           -0.92504702977801       -1.39524484284145       -0.05123827864635
C           -1.61907194704532       -2.66937882483529       -0.07232482040584
H            3.70577904911311        1.82594402181766        1.02139375190898
H            3.90150474811459        1.67928510042739       -0.69424576385792
H            2.35462979745851        2.26084439258143       -0.00842218190393
H            3.58361964304472       -1.93050215254871        0.04156026648494
H           -1.46678574648488        2.99868916091028       -0.02412993642608
H           -2.69686560380129        2.10710327084099       -0.93845063927437
H           -2.70615123335903        2.08334480712631        0.84340562599168
H           -1.41456776449909       -3.26440578029948        0.81878934818290
H           -1.38951224655293       -3.24661517941786       -0.96893342034655
H           -2.68816822910489       -2.43001967754305       -0.08471066077818
H            1.32696777791972       -3.09566204492461        0.01168375225195
