25
 energy: -3.750218164959 xtb: 6.6.1 (8d0f1dd)
C            3.20702783295183        1.29119747034487        0.09201704407627
N            2.36120870288906        0.09755227114913        0.04005775529777
C            2.62873856993095       -1.28023474707234        0.03846703349541
N            1.42570990377948       -1.97872336583364        0.00602859306584
C            0.41256397943429       -1.09593193967921       -0.01091920704485
C            0.95775781189283        0.18296909216755        0.00999398501666
C            0.14221874585857        1.33546980655857       -0.01029401712476
O            0.52400723964509        2.50800166811473       -0.02025456557394
N           -1.24901468316783        1.01512129063678       -0.03243347476129
C           -2.17812672761593        2.13197667388710       -0.04750743424739
C           -1.81342060043282       -0.22175336534926       -0.04987934335446
O           -3.01647631388345       -0.39553325190865       -0.07258859723062
N           -0.93855601053552       -1.32603567567487       -0.04092950457164
C           -1.52165281805778       -2.64826882394845       -0.06348848356934
H            3.71273822297773        1.41633274823119        1.05830137356824
H            3.98562696698988        1.26084809603252       -0.68091461237231
H            2.57298486099178        2.15880921242915       -0.06759999780319
H            3.58484484080534       -1.74280465879174        0.04655579479803
H           -1.60208106611105        3.05312128790830       -0.02520885794399
H           -2.78498136657826        2.10017759618952       -0.95089919099808
H           -2.82509194241042        2.08627666483444        0.82570961575265
H           -1.25171200668156       -3.21717437825379        0.82876228316981
H           -1.22441319853475       -3.19739122852152       -0.95954748249646
H           -2.60443546200169       -2.51063057029950       -0.07877862835614
H            1.32042765785830       -2.98130591581142       -0.00719253282827
