25
 energy: 35.058762361191 xtb: 6.6.1 (8d0f1dd)
C            3.63201342816828        2.84403812271465        0.18327377175802
N            2.35128002869706       -0.58929029239755       -0.00399948373023
C            2.41369067941346       -1.88332179245349        0.00719375685984
N            1.18032657753687       -2.49838536601444        0.00945576155232
C            0.27220943995759       -1.47705267538100       -0.02316758128259
C            1.01906573820809       -0.29402960233979       -0.02864557426432
C            0.32418997869359        0.97375574274222       -0.05888152454862
O            0.80844223979073        2.08068185770912       -0.10036590618356
N           -1.06181637151218        0.82887375756081       -0.04262749157341
C           -1.83635854000325        2.06836195532760       -0.02433416939859
C           -1.80590684921354       -0.33330445320340       -0.06120192033668
O           -3.01798819523365       -0.30475370492075       -0.08114765462480
N           -1.09574461909549       -1.54036100237238       -0.05874581493078
C           -1.89911655406831       -2.75355786027700       -0.08357076740625
H            4.08177658231430        3.00345891606680        1.12663255527916
H            4.07546160973199        2.92154925751997       -0.77988352802198
H            2.59095342150115        2.76480056389664        0.15569677094048
H            3.32425922303267       -2.43892213413850        0.03972606965491
H           -1.12095134380452        2.89211935323923       -0.01601690025404
H           -2.46192967444627        2.13929960324672       -0.91069273178078
H           -2.44463520175516        2.08833522055100        0.87450449649634
H           -1.74692762740974       -3.36595586449937        0.80606115922879
H           -1.71931641977181       -3.34945452997221       -0.97918979899383
H           -2.95803962674283       -2.46043154384783       -0.09470405851938
H            1.01887059831029       -3.49696135586385        0.01862514529940
