  72
        -99.32908460
 N         -2.0903648720        2.5087672367        2.7848057800
 C         -1.8395470722        2.1637999905        1.6062486836
 C         -2.9219007210        2.0789626439        0.5365746611
 C         -3.4689991874        0.6614415278        0.4963473380
 C         -4.3532997491        0.2948932281       -0.4810398666
 C         -4.8573452098       -1.0072738189       -0.5930959439
 O         -5.7158130303       -1.4320740843       -1.5364727621
 C         -6.2302229752       -0.5186545126       -2.4761033435
 C         -4.4399804167       -2.0107619179        0.3520459017
 O         -4.9631322417       -3.2356715881        0.1195087845
 C         -4.6549721909       -4.2817389696        1.0105967095
 C         -3.5954975529       -1.6805265023        1.3610802541
 C         -3.0667282575       -0.2998893626        1.5653967913
 C         -2.2763088367        2.4547515677       -0.8256676109
 C         -1.3942609613        1.3609610368       -1.4505880453
 C         -0.0891477539        1.1750023072       -0.7765314991
 N          0.4728265199       -0.0063014783       -0.4933297756
 C          1.8696607020       -0.0650184209       -0.1324168676
 C          2.7655652266       -0.3512703081       -1.3540263826
 C          4.2139121293       -0.2440906911       -0.9704453774
 C          4.8866351010        0.9599859175       -1.0857167780
 C          6.2182449808        1.0674691131       -0.7136622192
 C          6.9012272866       -0.0296434093       -0.2116806837
 O          8.1932806633       -0.0411454131        0.1748330883
 C          8.9546583068        1.1368461077        0.0463815390
 C          6.2168133110       -1.2678631575       -0.0815988810
 O          6.9558757092       -2.2835477397        0.4146908482
 C          6.3699629621       -3.5555421567        0.5489516043
 C          4.8871235554       -1.3520065376       -0.4597446387
 C         -0.1696128441       -1.2600469042       -0.8051762757
 C         -4.0129646022        3.0542432999        0.8971258251
 C         -4.9979923341        2.6671948470        1.9226758643
 C         -3.8879172995        4.4787199307        0.5171951028
 H         -4.6706843039        1.0344705818       -1.2000066552
 H         -6.7642392718        0.3021195928       -1.9880633569
 H         -6.9274805872       -1.0890589736       -3.0866972174
 H         -5.4400310079       -0.1125997511       -3.1160129802
 H         -5.0080389009       -4.0613933493        2.0223939542
 H         -5.1770028245       -5.1562369050        0.6278742814
 H         -3.5792097392       -4.4828835987        1.0355892115
 H         -3.2917458976       -2.4093877443        2.0937650220
 H         -1.9687100283       -0.3385338126        1.6480463250
 H         -3.0750084481        2.6748208647       -1.5330675112
 H         -1.6856488398        3.3624571732       -0.6974559877
 H         -1.9539733355        0.4288279085       -1.5003782294
 H         -1.1926099774        1.6773920799       -2.4835436205
 H         -0.8417807078        1.8993815538        1.2217985336
 H          0.5298972781        2.0457237609       -0.6254072478
 H          2.0141360449       -0.8464691987        0.6181094336
 H          2.1671140896        0.8891274290        0.3073796926
 H          2.5334187555        0.3779646070       -2.1325191706
 H          2.5502723777       -1.3489690795       -1.7384273038
 H          4.3798834999        1.8269455335       -1.4821578794
 H          6.7177437593        2.0157655055       -0.8251251149
 H          8.5492500467        1.9461088155        0.6617019422
 H          9.0130476875        1.4644178886       -0.9961256901
 H          9.9513727352        0.8803028088        0.4000506086
 H          7.1552515447       -4.1991103645        0.9406867406
 H          5.5317260093       -3.5397843829        1.2533722343
 H          6.0305548316       -3.9459209469       -0.4157170778
 H          4.3602957202       -2.2896238983       -0.3748005796
 H         -0.1774429216       -1.4478922785       -1.8824355530
 H         -1.1984813268       -1.2699168324       -0.4458798689
 H          0.3725116188       -2.0669260549       -0.3168940977
 H         -3.4013355814        0.0799438707        2.5373405933
 H         -4.5056370826        2.6927625349        2.9029049517
 H         -5.3682559954        1.6540274521        1.7766425702
 H         -5.8346027993        3.3601760128        1.9484889407
 H         -2.9339083372        4.8893501439        0.8605543898
 H         -3.9201770776        4.6239591901       -0.5643716523
 H         -4.6876579451        5.0633791243        0.9620894223
 H         -1.3068425908        2.5465578299        3.4292729065
