25
 energy: -2.248839562555 xtb: 6.6.1 (8d0f1dd)
C            3.23245979680423        1.16944704691303        0.10706273539164
N            2.29505083704069        0.09782872806520        0.03841674173142
C            2.60146155166171       -1.25244259446725        0.03173925807296
N            1.41193919485045       -1.94281155393101       -0.00978591649509
C            0.39603509027705       -1.05578268157674       -0.01654028369450
C            0.90491985577083        0.24905289348483        0.01760440436447
C            0.08573606447996        1.42143966836926        0.00894590351789
O            0.35987442344960        2.62973138889332       -0.00831237634537
N           -1.29169329765932        1.04540801677069       -0.02925269823671
C           -2.17238036035786        2.21622481019571       -0.07397107952492
C           -1.83278027636375       -0.21087330741345       -0.03189863749061
O           -3.02928085588799       -0.41456446650334       -0.05360811319364
N           -0.94192529450540       -1.31304412037035       -0.03678418826305
C           -1.45856422093717       -2.66455126197466       -0.07053984998001
H            3.67937454841399        1.23525988167590        1.10424705302389
H            4.02623595454956        1.02322146407225       -0.62962472548335
H            2.68468688525228        2.08464764596314       -0.10749223755987
H            3.57810693106193       -1.67397850378756        0.03665978272788
H           -1.62571596055966        3.17916732473140       -0.24507731207358
H           -2.92133378849860        2.03273607066431       -0.84154363105317
H           -2.70194811075196        2.28462782652716        0.86977740292120
H           -1.14500232528764       -3.22799701549405        0.81249474508281
H           -1.13115365843067       -3.19003376527727       -0.97184583695815
H           -2.54527083222855       -2.59610671748559       -0.07769715203933
H            1.35227994383703       -2.94905234838517       -0.03228753132965
