25
 energy: 137.431260180748 xtb: 6.6.1 (8d0f1dd)
C            3.16669693307678        1.08427329642958        0.16236277612360
N            2.27785328383481       -0.04409754739381        0.06320444736448
C            2.60663900930583       -1.34169805033820        0.01089007775140
N            1.48107760019019       -2.08928001022957       -0.04061657530968
C            0.42014613823519       -1.25127315079935       -0.01781756093656
C            0.88686626493041        0.07003532353165        0.04932298916271
C            0.11946231445074        1.22961398406813        0.09611560060856
O           -0.96918586236100        4.03768313201258       -0.15578075129667
N           -1.25843747976519        0.87481809682265        0.08021545719722
C           -2.17489326577279        1.82824213750057        0.17024766399001
C           -1.79282643158884       -0.46983880730860       -0.00677683715135
O           -2.98760916663908       -0.67741798082284       -0.01513349620450
N           -0.90383847861134       -1.52512187593781       -0.04107171488185
C           -1.40453816351681       -2.87334662898167       -0.12778688274440
H            3.47485780692127        1.26920883130053        1.19843977484242
H            4.05939002258619        0.93019668238954       -0.44001677065519
H            2.62688373541149        1.96834546168174       -0.18197072312649
H            3.59776173513251       -1.73292922172446        0.01065938888905
H           -1.22563306633908        4.98089286030251       -0.28677511567914
H           -3.24533116666548        1.66010977986188        0.11912530992205
H           -1.71790220726812        2.87776514271512       -0.12283073444556
H           -1.04078430191551       -3.44889250426255        0.72234709812825
H           -1.09907862915377       -3.34945216887937       -1.06170720022319
H           -2.49151047976270       -2.81406517339371       -0.09208910162841
H            1.46534543076475       -3.09331933993916       -0.09355546934767
