25
 energy: 140.051216389863 xtb: 6.6.1 (8d0f1dd)
C            3.16253339847472        1.11926893087873        0.18432374445307
N            2.26431728511300        0.00262969069628        0.05923165261805
C            2.59096922234292       -1.31345270414046        0.03319595896232
N            1.45758531168529       -2.03913300261534       -0.03689384259357
C            0.39834243769256       -1.19208279605963       -0.02046806054314
C            0.87545059624556        0.13865223049310        0.04869090618667
C            0.08414446640849        1.29523548395112        0.06818919850473
O           -0.78448871021721        3.83466162651457       -0.14239895158672
N           -1.28368604107695        0.90934176297338        0.02314498058675
C           -2.15950115130467        1.87651970009180        0.22415874051681
C           -1.82454486767241       -0.42669074981217       -0.03851026114353
O           -3.02235042325053       -0.62413923026198       -0.04945855079643
N           -0.92582588398934       -1.47827092398504       -0.06087450705405
C           -1.37719165438532       -2.84791131128518       -0.13143097000426
H            3.40432979580941        1.30896016393356        1.23472139125438
H            4.08214609077222        0.91422145287889       -0.36032004764307
H            2.65412390235797        2.00617135843950       -0.19393756678376
H            3.58469304044723       -1.72158087932588        0.00943118258540
H           -1.49182017923113        4.57688653612028       -0.40297348600444
H           -3.20682065129489        1.80361720770213        0.08845106630086
H           -1.64166691813384        2.88932184831963        0.25554397308832
H           -0.96190127675205       -3.43059393754935        0.69426659155915
H           -1.07279388884199       -3.31042764723837       -1.07365418440557
H           -2.46126779616625       -2.87344474874863       -0.06416569862733
H            1.42888561143922       -3.04732805640659       -0.07095983328304
