25
 energy: 26.778537735018 xtb: 6.6.1 (8d0f1dd)
C            3.20007145499997        1.15441873950960        0.15187772168783
N            2.26294833777413        0.08454393311924        0.06376850112954
C            2.57972454244889       -1.26885393052298        0.05732666318697
N            1.39810773388083       -1.96272299830624       -0.02799693217411
C            0.38242895769080       -1.07158318396925       -0.03539369667750
C            0.86186607614673        0.25244018073998        0.00697683354036
C            0.01873028458503        1.44437272174680       -0.06260260683167
O            0.18741633191913        2.70070770334924       -0.08202524093592
N           -1.34339833312221        1.05457721064729       -0.14610917651684
C           -2.18294468041017        2.32056577392012       -0.11710004324585
C           -1.85947562270325       -0.24300927672378       -0.07522199604256
O           -3.04505584435224       -0.49667571100396       -0.02033578900105
N           -0.95108124499952       -1.35067244761794       -0.05379437604474
C           -1.42647699874470       -2.72152240860038       -0.10101661051515
H            3.57034096365867        1.27740964898708        1.17809082389886
H            4.05334836397801        0.98313521068147       -0.51501745219884
H            2.66293051280367        2.04669080115635       -0.16344524482089
H            3.55433871849243       -1.71708826860451       -0.01097419390326
H           -1.84716817118164        3.43238906601727       -0.67288654661873
H           -3.14134353102255        1.94120709729927       -0.47493402691509
H           -2.23295171043675        2.71054243368937        0.90116607736013
H           -1.07960990296818       -3.30426362315671        0.75933731450484
H           -1.09790992529603       -3.22569725086916       -1.01634207493375
H           -2.51454445111775       -2.70287571558051       -0.08462411379803
H            1.35923862143885       -2.97189987631529       -0.08225631863608
