72
 energy: 82.029469562780 xtb: 6.6.1 (8d0f1dd)
N           -0.66621449857592        1.48540482449625        4.29062748432722
C           -0.38497546018697        1.04301739787215        3.18128400802252
C           -2.92698278143497        1.88098969466770       -0.27565224898515
C           -3.49947816691017        0.64209106465334        0.07691001876772
C           -4.13578791622254       -0.12566240772269       -0.92699632762056
C           -4.64453032357262       -1.36895742826314       -0.65934185956768
O           -5.31395280074297       -2.11737308920654       -1.57709535001453
C           -5.55961763775637       -1.54173639143285       -2.82849426908051
C           -4.51053918341236       -1.96044658485282        0.61635806134454
O           -4.97893715144683       -3.24380504545879        0.73849492421578
C           -4.81281633216707       -3.86888853270768        1.98213819656094
C           -3.94035218303915       -1.21621604723880        1.63811119109394
C           -3.46432916616261        0.06065038034048        1.38369261652081
C           -2.60122977123347        2.20919401687600       -1.66089351377160
C           -1.63632783628544        1.22180085952046       -2.44046332554371
C           -0.21720497120476        1.19292508674615       -2.11298925570839
N            0.35179812456653        0.30771754389809       -1.28102741038648
C            1.69904757376058        0.47448572915269       -0.82996647667683
C            2.72239102869356       -0.21884255458293       -1.73209669359699
C            4.07238612806019       -0.12893842211250       -1.08850216982164
C            4.84586764387190        1.00839550163028       -1.21369692479709
C            6.08383043026704        1.09118649569203       -0.58908367080687
C            6.57780262491832        0.04012280048429        0.16913147955466
O            7.79583779343094        0.02048697864228        0.80594272079324
C            8.65655137318117        1.12988316742779        0.66895064205358
C            5.78179111719184       -1.12568720357532        0.31191940353306
O            6.34445080739841       -2.12495613568613        1.05585019169235
C            5.62915602226533       -3.31989433730863        1.24962646521419
C            4.54432556834277       -1.18404475059853       -0.30932892390379
C           -0.36147125089147       -0.87411282257546       -0.87168707337143
C           -2.84765538900119        3.09305268415059        0.61650489041437
C           -3.91754314657171        3.21488987005522        1.70265960588829
C           -1.42926772468270        3.34157370310680        1.10735883226003
H           -4.29511387873853        0.32709556998999       -1.88774622352081
H           -6.16527355662403       -0.62837108148198       -2.77238269018689
H           -6.11934432449326       -2.29660961074829       -3.36369528695848
H           -4.63105495373354       -1.32185644700942       -3.36883517115913
H           -5.35652516293405       -3.33748031671845        2.77524906274262
H           -5.22351854328099       -4.86936907484555        1.87540168985956
H           -3.74735243016573       -3.95496002951718        2.22787040508579
H           -3.86211202566612       -1.64494247065923        2.63691192917671
H           -3.03437590373790        0.58567786842237        2.22789525288865
H           -3.51389980623980        2.23646940660320       -2.24557596149072
H           -2.12432690911150        3.18931759869012       -1.72738499113607
H           -2.09744517386274        0.24468060734608       -2.35876683364648
H           -1.72447674233154        1.66121675333164       -3.42559370296485
H           -0.54943767660829        0.00665106097230        2.98915943464589
H            0.40587263770422        1.96966126227873       -2.52699402751399
H            1.77489998868354        0.06964327529615        0.18213664850238
H            1.95407953968558        1.52691890397194       -0.79562034998083
H            2.72978456248197        0.26553656358109       -2.71176090156221
H            2.41742941116114       -1.25600502653213       -1.85391327941403
H            4.50018523196106        1.83865823925452       -1.81223386464156
H            6.67066293937919        1.98755391262975       -0.71709836795904
H            8.21779933143636        2.03857466818415        1.09336320765173
H            8.91395762666814        1.31117536626830       -0.37994553720459
H            9.56926493956479        0.89112886078378        1.22163600338105
H            6.23842607363546       -3.97052701352717        1.90456117960256
H            4.67556205330591       -3.08181076557599        1.72367468216943
H            5.41002126486450       -3.83071568072931        0.30513215961163
H            3.92523665739871       -2.06373757037728       -0.21099457451414
H           -0.59057877235453       -1.50512077583853       -1.73162994294388
H           -1.29615412728093       -0.58375798126559       -0.41826469508833
H            0.23694368506391       -1.44322304965305       -0.15175134837799
H           -3.04810005621970        3.88590874757030       -0.11231408229057
H           -3.64191572360022        2.66353289683795        2.59724514167420
H           -4.90279740801518        2.83798812360513        1.35890512458505
H           -4.04586710861913        4.27131306619060        1.95968787436590
H           -1.10145662119909        2.52939519910369        1.74383710243526
H           -0.77304378002207        3.36958824285915        0.23966933668166
H           -1.38965908651367        4.27152169227258        1.66631793951418
H           -0.54091127057300        2.38170686199757        4.64791668630217
