72
 energy: 125.468435848082 xtb: 6.6.1 (8d0f1dd)
N           -0.97907475166534        1.91467531788501        3.65280797872738
C           -0.84196152503776        1.20479828367910        2.70469084783218
C           -2.76117633787540        1.79711304831028        0.01327422337416
C           -3.46310314010480        0.59401269112281        0.29789610214826
C           -4.09967151781945       -0.08593337956510       -0.76265693292417
C           -4.66639594908676       -1.31692538153112       -0.56467760634880
O           -5.36162226799426       -1.95888119107131       -1.53915406043808
C           -5.57626068630872       -1.28028283614940       -2.74840757491301
C           -4.57969532032739       -1.99273092237764        0.67661598855378
O           -5.05845322547344       -3.28273963555820        0.72179027100065
C           -4.79392937809011       -3.98053378129002        1.90993915383231
C           -4.05013565220456       -1.32659969107617        1.77202511449183
C           -3.54188478945742       -0.04216743118526        1.59652438572521
C           -2.39131354066205        2.15281954265723       -1.38508628750446
C           -1.55359590650794        1.20570645554455       -2.28100827453763
C           -0.08168420853265        1.02699333287797       -2.20047118108328
N            0.52289088985262        0.09011641283834       -1.44449457912947
C            1.86741624163194        0.26564516635676       -0.99043219975637
C            2.91694736751457       -0.34382179943979       -1.90638458870977
C            4.23653419718075       -0.21838075169084       -1.20958791603951
C            4.98248327709045        0.94088483430210       -1.29112226417646
C            6.19391901907966        1.04297765710682       -0.61713879600251
C            6.70001293973858       -0.00238815187921        0.14769985040665
O            7.92251968499642        0.00716102931243        0.80353892650020
C            8.77537668331713        1.12798247687264        0.65577748898976
C            5.91496441830836       -1.18341243537250        0.26365189451521
O            6.47850648832961       -2.18654743503597        1.01379979069639
C            5.76686254318332       -3.38091486835876        1.23198827577964
C            4.69948164799349       -1.25927684288340       -0.40638239474981
C           -0.25497040586704       -0.99288194097257       -0.90547911475841
C           -3.03444965193760        3.11410700208252        0.72417657794804
C           -4.14762620761759        3.20421441568085        1.76440484414400
C           -1.71154993644994        3.76375050950031        1.10856483624199
H           -4.22105727208952        0.42609719128594       -1.69961712128231
H           -6.15356438898461       -0.35035775085751       -2.65486754140888
H           -6.16315029536415       -1.97737671208860       -3.33325100973263
H           -4.63818172255587       -1.04898989889770       -3.26386291558346
H           -5.31065013612241       -3.51167319846306        2.76483697987436
H           -5.17844192497536       -4.98748490190019        1.78049815664748
H           -3.70513831626172       -4.03876380871441        2.06188654414116
H           -4.01895255726184       -1.83963589141210        2.74400923073537
H           -3.19125486338344        0.42719896502250        2.51228393670372
H           -3.32750149809170        2.30952722787977       -1.92515855990493
H           -1.83298915324148        3.09011480702800       -1.41279806940993
H           -2.07834413456861        0.27028086675326       -2.21966311910589
H           -1.74130981908283        1.76132976644603       -3.18471615652747
H           -0.89757836395393        0.19110074199503        2.55268551920433
H            0.51952879719472        1.56961925230736       -2.91411623990109
H            1.94943851695663       -0.18091343580373        0.00380473646268
H            2.12185182606213        1.31017948206045       -0.90686924203508
H            2.93514044451744        0.17527356095341       -2.86910522990655
H            2.63046700212942       -1.37843047911636       -2.05700594985031
H            4.64222149738560        1.76936250900939       -1.89643362669472
H            6.76411964554406        1.95376342336190       -0.71715066905410
H            8.32785899678568        2.03200787281200        1.07810980643884
H            9.01781067954502        1.31262627675532       -0.39506645553726
H            9.70969814051631        0.91764676301382        1.18854212028408
H            6.38147586658686       -4.04842095101708        1.87404930394608
H            4.82661872577241       -3.10855779898151        1.70904788651930
H            5.52358435315891       -3.90635023902078        0.30275520589015
H            4.08796137145432       -2.14819475333400       -0.33876595404924
H           -0.55801436497146       -1.66411195267043       -1.70880493986873
H           -1.15631155376468       -0.58968483897072       -0.48518507043715
H            0.31202194784675       -1.55906932287349       -0.14723028870447
H           -3.38966115990949        3.69438485719105       -0.13015915482950
H           -3.82766534071660        2.74728190181490        2.69613139026140
H           -5.10627479768644        2.70007310241089        1.44047387044789
H           -4.39747077687586        4.26347239257249        1.93031862503631
H           -1.16449294981233        3.10820224397174        1.75780024916751
H           -1.11280757936062        3.85990157494235        0.20385132295967
H           -1.87230696990377        4.72034466012565        1.59513729319497
H           -1.13886913581260        2.18762448243353        4.53284268355037
