72
 energy: 55.187462217895 xtb: 6.6.1 (8d0f1dd)
N           -2.01569559147786        2.37589904718977        3.04711622192634
C           -1.74786538868895        1.67353258419939        2.04028013542561
C           -2.57826917766894        1.80526011677920        0.57763014610839
C           -3.42767183705797        0.57096809026383        0.53236798288699
C           -4.12068347222402        0.05376807840835       -0.55685037735275
C           -4.74827212445670       -1.17654587876015       -0.49677587238043
O           -5.53813701338393       -1.72482206044357       -1.46226694790486
C           -5.90458783421980       -0.95059539228551       -2.57734419606019
C           -4.55501505517009       -1.98091353054306        0.63003448919253
O           -5.05655927062254       -3.24300172745920        0.59721626137622
C           -4.70212703919702       -4.03402420533107        1.70012644720009
C           -3.86798700954918       -1.47543808100478        1.70592203345726
C           -3.39317135662594       -0.19232768336707        1.67446495254412
C           -2.03833211500516        2.10472853399016       -0.92638458075144
C           -1.32665905802363        1.23098059235351       -1.97298759049853
C            0.13238418293761        1.13820560445847       -1.64958129514457
N            0.68671161571194       -0.09019794703317       -1.27641974302985
C            2.05794664119068       -0.04599008481627       -0.87119751417092
C            3.09332594226255       -0.53349880914282       -1.90364422850501
C            4.45230316537809       -0.38478352426767       -1.27084441637971
C            5.16917748892553        0.79804273305014       -1.33294270383906
C            6.36963041130272        0.93481334908295       -0.64547452239283
C            6.91125268863423       -0.10457240798852        0.10986285409558
O            8.16464524542376       -0.07597176631531        0.72232595149480
C            8.96154901985497        1.07319025473105        0.52349892791320
C            6.15128806379016       -1.30140549996719        0.21620270374486
O            6.71491938676852       -2.29207343044254        0.99446111030004
C            6.01505517750347       -3.49329944901321        1.20182671482701
C            4.95665854073764       -1.41382050543827       -0.48392921410708
C           -0.13275588147307       -1.19017823650402       -0.83880516686879
C           -3.42444788838276        3.13503646691311        0.76969496199030
C           -4.48720365055437        3.13062068977641        1.84998897874324
C           -2.39980787582394        4.25101932713367        0.93581101668804
H           -4.21856802957709        0.64643353062454       -1.44768070184363
H           -6.43758842906997       -0.03152295964407       -2.31576960539566
H           -6.58087480258953       -1.57662995478588       -3.15608017237525
H           -5.03744768984363       -0.67932393576718       -3.18009943837701
H           -5.07311689198794       -3.59723832285060        2.64484080208660
H           -5.18015910142408       -4.99447629050409        1.53492316084828
H           -3.61055415114924       -4.16323794116489        1.73014589331579
H           -3.67903746922528       -2.06128436601875        2.58326842497098
H           -2.92550006062960        0.19231130438861        2.55193195222051
H           -2.93449435164937        2.46988407445755       -1.41664409916935
H           -1.32903278269823        2.91969639744474       -0.86855516314123
H           -1.77451275766752        0.25547817178166       -1.99841160131740
H           -1.47702792761995        1.67937977988185       -2.97690175025883
H           -0.91096310775537        1.06451384716896        1.92396827560904
H            0.86868157492261        1.75108392613359       -2.17533948096426
H            2.18255859876833       -0.63472088616498        0.03150540066557
H            2.30997309420940        0.98307396054221       -0.62242618468199
H            3.02854271610269        0.06661881891965       -2.80816602090483
H            2.87857545846997       -1.56343143968552       -2.18294924660632
H            4.79538616239812        1.62690701366630       -1.91451472984414
H            6.91633831458635        1.86179186859927       -0.70055224957595
H            8.49587316958079        1.95844934485393        0.96990600666741
H            9.11587815220413        1.26265101455123       -0.54278674419336
H            9.94182283039698        0.88893854149217        0.97987906097309
H            6.66343792033629       -4.18588633701716        1.77368735096830
H            5.09873000606379       -3.27727100464693        1.74973184329514
H            5.74891329558210       -3.97106889872445        0.25613097178350
H            4.36768159456665       -2.31628822372244       -0.44890125431752
H           -0.39917471893471       -1.83144885928583       -1.67692815566958
H           -1.05634534865376       -0.84168554674912       -0.37047031196649
H            0.39227180254300       -1.83025048844829       -0.09750082918989
H           -3.96554667941860        3.33115071083017       -0.16042072812538
H           -4.08837925918788        2.88973853781088        2.81824565045976
H           -5.19815426050534        2.29561128600171        1.68143091439166
H           -4.98259686801749        4.10233116865118        1.91798191947371
H           -1.65254362778403        3.91903415991801        1.62708397631120
H           -1.89551555945033        4.44444138542983       -0.00419933897404
H           -2.86495203734782        5.15597250832951        1.30491343506572
H           -1.43295089567165        2.53512215940747        3.83999256034609
