72
 energy: -6.074155406221 xtb: 6.6.1 (8d0f1dd)
N           -1.55700455801076        2.85210968291605        2.29153358410835
C           -1.59023358923505        2.14036976487374        1.25213654727727
C           -2.75722369679385        2.05470129395846        0.29856514471778
C           -3.34674505970648        0.65909358263694        0.35147373741066
C           -4.32045445570896        0.24694534248519       -0.56068809036314
C           -4.85936218415363       -1.02621458811781       -0.51884163366921
O           -5.80346618395643       -1.51623975138756       -1.37622776944558
C           -6.34996945679441       -0.64582924072927       -2.33172656807874
C           -4.41733699724500       -1.93770021353766        0.46139836202192
O           -4.99887543884569       -3.17224338584703        0.42267412835349
C           -4.66049481028854       -4.08548683993789        1.43463130772816
C           -3.46120391858655       -1.52505804129832        1.36951241672049
C           -2.93529682149603       -0.24136183081200        1.31244334964325
C           -2.19228373238263        2.29428680994509       -1.13021185035985
C           -1.26071825970001        1.19180197931532       -1.68392066642149
C            0.02808057870300        1.13564771853838       -0.93625507610596
N            0.64809196894065       -0.06357364033900       -0.58159634216516
C            2.02522013338164       -0.07253925757391       -0.20185462871807
C            2.96620901316675       -0.56034770778754       -1.32910780900485
C            4.38832156016842       -0.44369095069783       -0.87946351954178
C            5.10541162731944        0.72337878219885       -1.06630960792662
C            6.40785570827198        0.84082842193930       -0.59763721324835
C            7.01906405481639       -0.20743989305493        0.06991255410528
O            8.29515363963566       -0.20540543755149        0.54965806543993
C            9.06985015387123        0.94704611028680        0.33924455478953
C            6.29296233286971       -1.40031986200330        0.27567361942802
O            6.95290692789644       -2.38288426222694        0.95607781690125
C            6.28930715465377       -3.60302530334268        1.16015628997962
C            4.99594372646612       -1.49723234035850       -0.19724317443941
C           -0.05086997309934       -1.31882110753247       -0.62717569563557
C           -3.87834655946948        3.09161560171018        0.58395781654577
C           -4.52522948687807        2.80760629508540        1.93577940531668
C           -3.30786891059387        4.49965284092146        0.57198907094031
H           -4.62716340611268        0.92292447713587       -1.34154236426941
H           -6.80702968052037        0.22946872505126       -1.85968620774715
H           -7.11726030945388       -1.21863079887107       -2.85135270686425
H           -5.59793278654814       -0.31038356555097       -3.05330798632698
H           -4.88750856992351       -3.68499908120108        2.42953860925408
H           -5.27029299456505       -4.96954613279038        1.24573646227744
H           -3.60082679793584       -4.36165558055282        1.38775692123841
H           -3.11724619576626       -2.18898227503934        2.14619434326583
H           -2.20837767850962        0.06481174442313        2.04684584996367
H           -3.04371487336213        2.41957869237285       -1.81129502148318
H           -1.63096876163422        3.22780155796643       -1.11421620116416
H           -1.78280664505739        0.23960018220994       -1.64788274467026
H           -1.05151447527833        1.39961033702031       -2.74703590259484
H           -0.71946206472176        1.60767032470622        0.79353604119565
H            0.68699390410027        1.98384936834990       -1.05968086021021
H            2.17623652510660       -0.69925158830681        0.68999732656634
H            2.29990899475393        0.94818081068169        0.05979563153994
H            2.78662230148365        0.05098465242355       -2.22022623179643
H            2.71904125511057       -1.59560972886194       -1.57277713330780
H            4.65622185157414        1.55548760892067       -1.58773528949946
H            6.93347563046161        1.76603061620874       -0.76797977425805
H            8.63218509516298        1.82407675365428        0.82862675238957
H            9.18808554726936        1.15520167163334       -0.72985247366505
H           10.04458671404557        0.73026395114053        0.77329455683436
H            7.00991272079089       -4.24543292585703        1.66665602940089
H            5.40219609739843       -3.48207321708096        1.79006100734361
H            5.99713143457747       -4.06818702302856        0.21194902671242
H            4.42708975233448       -2.40033189975872       -0.04960855362967
H           -0.22314513653569       -1.65946693256865       -1.65383150920400
H           -1.02067275835530       -1.21596049638887       -0.13332215322843
H            0.53958620778844       -2.07427598134449       -0.10705947829991
H           -4.63574792988892        3.02053619893938       -0.21406004529778
H           -3.74788885464481        2.89073187435494        2.69245610121603
H           -4.94136972465150        1.80214847622197        1.96617562369713
H           -5.31116919079170        3.52985024605055        2.15265383407916
H           -2.52192236444208        4.57006871161816        1.30344489430253
H           -2.92172127865829        4.75461978012655       -0.40927702087476
H           -4.07623386083999        5.21999582213084        0.84280173691403
H           -0.69870872010241        2.79509883100717        2.83546877556528
