72
 energy: 120.031081097671 xtb: 6.6.1 (8d0f1dd)
N           -0.89786500119262        1.81462989292278        3.78001671853355
C           -0.72376539504578        1.15383096945500        2.80127414404111
C           -2.80061024539049        1.81385796140524       -0.06306347425149
C           -3.47114934728809        0.60515526406506        0.24288007452017
C           -4.10712265839344       -0.09706566386260       -0.80330279039660
C           -4.65987573348374       -1.33115720551049       -0.58741065769471
O           -5.34824724284675       -1.99658139168669       -1.55091528195768
C           -5.55605546144414       -1.33624663163624       -2.77030802179198
C           -4.56344091248832       -1.98666355507007        0.66140794176327
O           -5.03949746289021       -3.27691477449818        0.72567147767836
C           -4.80144650127086       -3.95479666027861        1.92986356872166
C           -4.02705379845266       -1.29859523928242        1.73966167602466
C           -3.52495801615082       -0.01737909237608        1.54429140236552
C           -2.44266556142732        2.16877344312863       -1.45343937961489
C           -1.57350797745745        1.20835712249551       -2.32422107651495
C           -0.10976801566328        1.03867766156679       -2.20983531890702
N            0.48474077549084        0.14254627740788       -1.40322445253300
C            1.82700586488579        0.31851956613129       -0.95073923354883
C            2.86943733355465       -0.31282906945158       -1.86371051820681
C            4.19595227773071       -0.19622076604378       -1.17986347349687
C            4.94858439652900        0.95798457682421       -1.27180719912210
C            6.16660329786774        1.05553529138263       -0.60975042098539
C            6.67010924726255        0.00898087042819        0.15360897411978
O            7.89129131094061        0.01209852671098        0.80687682147978
C            8.74729890039244        1.13015099194965        0.66372085474344
C            5.88236253551093       -1.16852635150754        0.27560922279753
O            6.44627488554252       -2.17115347816187        1.02329055727177
C            5.73232629173214       -3.36482816926213        1.23569811980534
C            4.66085801744081       -1.24024685958555       -0.38194399652920
C           -0.27817830023837       -0.96534728902950       -0.89766839177665
C           -2.98772202682520        3.10903860283419        0.70015409163588
C           -4.09126444071511        3.20621789521269        1.74987081019518
C           -1.63252890036003        3.65981349205989        1.11363817519925
H           -4.23857953946989        0.40206944707305       -1.74490782118217
H           -6.13925128353308       -0.40746183604670       -2.69194023755751
H           -6.13180323857544       -2.04453517939068       -3.34983642675007
H           -4.61376747138556       -1.10799772692715       -3.28039543938445
H           -5.32639607065799       -3.46918367966093        2.76860560142583
H           -5.19110827518124       -4.96077993948839        1.80710041502426
H           -3.71712444632077       -4.01976343596873        2.10613194898046
H           -3.99545583444387       -1.78455005251814        2.72254474795096
H           -3.15437203587270        0.46764156380125        2.44267071193534
H           -3.37508508478838        2.29123854956931       -2.00483600456329
H           -1.90633919862531        3.11961893053076       -1.48993785450800
H           -2.09570581389840        0.27251905477301       -2.24817195540616
H           -1.74413123397895        1.73701469673704       -3.24781700101806
H           -0.81127284700816        0.13339258608840        2.65174670261199
H            0.50698833412699        1.67291089833411       -2.82499842497939
H            1.90777636278602       -0.11721936231655        0.04840602363524
H            2.07958830122599        1.36588938763124       -0.88251654449984
H            2.88361460308687        0.19806884279113       -2.83058484785442
H            2.57725927738333       -1.34798878294737       -2.00716926820750
H            4.60664791926240        1.78673650472718       -1.87546335212380
H            6.74108264065394        1.96273342995739       -0.71713782950079
H            8.30311776296609        2.03617096877507        1.08625714411371
H            8.99444596056774        1.31335088372888       -0.38659174932589
H            9.67646320695036        0.91738332094015        1.20475244104027
H            6.34264153839444       -4.02776902306725        1.88435232572545
H            4.78793852144062       -3.09558771704233        1.70668808504472
H            5.49556972215990       -3.88862061929953        0.30378243496302
H            4.04719503310394       -2.12687537328760       -0.30687969935448
H           -0.56495860564939       -1.62705750254952       -1.71451870527174
H           -1.18556391248463       -0.58362939748543       -0.47322007853140
H            0.29817057258564       -1.52835848992408       -0.14803256846021
H           -3.30765176929891        3.74657019759855       -0.12676928160734
H           -3.78286672125370        2.72509615014681        2.67314559682191
H           -5.05723436072923        2.73573382495691        1.41828309553509
H           -4.30922086933764        4.26666281887686        1.93887057837870
H           -1.13966468788727        2.95692693644474        1.75900424362861
H           -1.02056274815593        3.73841042920744        0.21657333047311
H           -1.74273722417566        4.61372199308348        1.61766585352378
H           -0.97462144683456        2.24982351377733        4.60018490601091
