72
 energy: -1.602783118833 xtb: 6.6.1 (8d0f1dd)
N           -1.65337075792913        2.88599409789918        2.37423058253949
C           -1.63891145584902        2.12799761018981        1.36384812427705
C           -2.76043519266247        2.03707413321870        0.35814073397885
C           -3.37318259631783        0.65794231279201        0.38398526342293
C           -4.31324569640607        0.22896595735610       -0.55438560877977
C           -4.86083238734033       -1.04027474356566       -0.50970356368336
O           -5.77791819512929       -1.54274371348666       -1.38988884638348
C           -6.30057564861966       -0.68086452152568       -2.36840604231059
C           -4.43523677883292       -1.93905147039720        0.48441831625044
O           -5.00694492769714       -3.17753140259940        0.44455187102244
C           -4.65800359910823       -4.07380845149635        1.46713627537708
C           -3.50177947908037       -1.51681362641775        1.41148454601710
C           -2.98431344141966       -0.23230093378012        1.36040312044269
C           -2.17525362636673        2.28881147321094       -1.06779928260520
C           -1.25985996479939        1.20673248399614       -1.70909662937381
C            0.05676716205336        1.14137119262104       -1.01121969473408
N            0.66664061769243       -0.07363809254457       -0.65495312981578
C            2.04575855093622       -0.09695770982580       -0.27097567882077
C            2.99886820266470       -0.57674333788447       -1.39062834912350
C            4.41771057831689       -0.45371337686770       -0.92489008624650
C            5.13576569947460        0.71620244642099       -1.09339955794985
C            6.42989570386750        0.83877493144894       -0.59761482257432
C            7.03936996748113       -0.20565633968591        0.08047952039764
O            8.30822382092824       -0.19230845089479        0.57904650428988
C            9.06859743235798        0.96871849944387        0.36115368445177
C            6.31180383049514       -1.40086894110597        0.26627709749975
O            6.94080868916666       -2.37974053205666        0.98316932733020
C            6.25887011382548       -3.59198625495448        1.16931479332227
C            5.02374385208662       -1.50278054962378       -0.23510506329806
C           -0.05901656930024       -1.31858192603762       -0.64926786536146
C           -3.85269795649325        3.10623111156956        0.59948457063704
C           -4.55680691765899        2.84364499196018        1.92586183947130
C           -3.20564013360616        4.47974685846122        0.59814209826277
H           -4.58863402969850        0.89089054860798       -1.35921491540841
H           -6.76750122929381        0.20148418237392       -1.91992872420630
H           -7.05706605028970       -1.25455269807704       -2.90307279970822
H           -5.52993446553390       -0.35282648001296       -3.07204995798582
H           -4.89532722526065       -3.66106807141334        2.45651449718834
H           -5.25074933860779       -4.97066871630520        1.28221694866634
H           -3.59228251119294       -4.32899709168441        1.42506780439712
H           -3.16752002300751       -2.17247814315723        2.19919879144078
H           -2.27901842969589        0.08506610399637        2.10984468731729
H           -3.04479206632049        2.45829273660648       -1.72695737714770
H           -1.59418949048643        3.20888578800905       -1.01706790987818
H           -1.76203690848013        0.24472051530207       -1.68369498257529
H           -1.10263652919179        1.43191357516142       -2.78152868310928
H           -0.75872222094634        1.55789265207150        0.95662368736962
H            0.73173797595383        1.97023642384862       -1.18864444883486
H            2.20671910360742       -0.72934959134289        0.61707074340974
H            2.32056116593668        0.92161848508333       -0.00748652698535
H            2.82063968602649        0.03762999255529       -2.28042821636021
H            2.75738051556807       -1.61244582163641       -1.63782438671162
H            4.69097761877596        1.54980764095175       -1.61701601800952
H            6.94298792780404        1.77385207583998       -0.74695937049142
H            8.61741942170573        1.84313352168440        0.84325596510014
H            9.17986107897487        1.17038358642698       -0.70972659068790
H           10.04844454370649        0.76807007713968        0.79089791737035
H            6.96455546056644       -4.24860614573550        1.68127676268834
H            5.36467915483320       -3.45749704906428        1.78466021900082
H            5.97235493813951       -4.04595966761899        0.21395380024645
H            4.45345664078580       -2.40615570346660       -0.09780463535150
H           -0.23211953685185       -1.69833708646199       -1.65839103492329
H           -1.02719099631906       -1.17524786424121       -0.16094820983101
H            0.50766910599235       -2.07310191009155       -0.09126069946410
H           -4.57512237644759        3.07327980763052       -0.22955728782870
H           -3.76986387958730        2.87576844349542        2.67164717335393
H           -5.00953841139384        1.85132418533094        1.94878451245241
H           -5.30066694974673        3.60998355360036        2.15048907306609
H           -2.43209650666874        4.46991532765575        1.33550325784360
H           -2.79254340470771        4.71039390187784       -0.37704577802517
H           -3.92078555209192        5.25238628204411        0.87232842780747
H           -0.81530235454066        2.82876118728786        2.94835332624507
