72
 energy: 76.005170348846 xtb: 6.6.1 (8d0f1dd)
N           -0.57372584892992        1.46562455215042        4.40254730712482
C           -0.28418902885441        1.00127565720875        3.29765680520274
C           -2.97186742728556        1.90386292613304       -0.33755677606273
C           -3.50853918524403        0.65320694741504        0.02562466513593
C           -4.14511828515281       -0.13623784805673       -0.96470609931380
C           -4.64046095618154       -1.38204725959919       -0.68330330578588
O           -5.30494809216600       -2.15575306205284       -1.58687862075663
C           -5.57029352466736       -1.60689105114875       -2.84611404349561
C           -4.49437205745746       -1.95240214609923        0.60044184806294
O           -4.96136843311343       -3.23352960691321        0.74315778672932
C           -4.81427238355512       -3.83969801116226        1.99804323319630
C           -3.91292653469948       -1.19133319922853        1.60283798587135
C           -3.44484524190361        0.08361178633235        1.33114225069651
C           -2.65261560332518        2.22260296857014       -1.72582069573712
C           -1.65359799731109        1.23321709752131       -2.47485262869810
C           -0.25547545904057        1.24418154972271       -2.08027029325259
N            0.30736066456464        0.35881933885114       -1.24244708751117
C            1.65631513259815        0.52422770652387       -0.79096503441220
C            2.67437423779078       -0.18877460829293       -1.68943380273014
C            4.03158178146314       -0.10687760144409       -1.05780829935981
C            4.81190512467230        1.02472260825409       -1.19357455767233
C            6.05610003754046        1.10229563267608       -0.58136667137502
C            6.54672060917764        0.05007554563809        0.17565584310937
O            7.76424855692636        0.02295731484931        0.80460361945558
C            8.62711491467227        1.12874640285922        0.66833873764188
C            5.74793772049093       -1.11148175375977        0.32598403381303
O            6.31101312926677       -2.11016599982939        1.06753177289155
C            5.59677686642698       -3.30635021646530        1.25605570815106
C            4.50493516754458       -1.16475294350478       -0.28327488329419
C           -0.38853120688360       -0.84392303468137       -0.86521882485174
C           -2.80343616929169        3.08051200071073        0.58688106360432
C           -3.86313397768336        3.21801380320265        1.68315185759820
C           -1.37902035968820        3.22603016254911        1.10295418578502
H           -4.31354348493665        0.30121091090760       -1.93178456915934
H           -6.18266098395171       -0.69833157739625       -2.79386156957170
H           -6.12923244390306       -2.37709562200495       -3.36365723639930
H           -4.65002720951699       -1.38895934501371       -3.40136900906840
H           -5.36278049745317       -3.29528977936247        2.77763742851904
H           -5.23258253608001       -4.83843714247214        1.89769868903803
H           -3.75482853088093       -3.92903533362256        2.26607927219973
H           -3.81912699603569       -1.60346178191792        2.60422769007318
H           -2.99677015689428        0.61953907505318        2.15662344284518
H           -3.55735480038430        2.21803886627695       -2.32408411739836
H           -2.19579717123359        3.21059914796685       -1.80761437446691
H           -2.09756299108618        0.24446396980896       -2.40129726718839
H           -1.71194199711482        1.64560661064361       -3.47604715468328
H           -0.47293291734629       -0.04194601405061        3.10842336125734
H            0.35870766914754        2.06270724588243       -2.42385289655186
H            1.73002736763136        0.12876943796783        0.22501488456881
H            1.91274225122886        1.57897106057517       -0.76654140442121
H            2.67925408951613        0.28571464091992       -2.67364164320783
H            2.36407716776360       -1.22631205539515       -1.80240972904301
H            4.46538597177658        1.85548302919261       -1.79078306968483
H            6.64638896496807        1.99516835678237       -0.71591018862013
H            8.19124085041732        2.03845629723755        1.09392182644928
H            8.88709099911784        1.31022773895186       -0.37989887378880
H            9.53562217481096        0.88205464792850        1.22177668426624
H            6.20791269819700       -3.95412977277178        1.90557315405726
H            4.64518979649679       -3.08739074251924        1.74504998014695
H            5.38025518866800       -3.80981031997627        0.30679217582890
H            3.88478331483938       -2.04284773720600       -0.18045324941425
H           -0.60078374990720       -1.46432847188179       -1.73826794806589
H           -1.33152145838073       -0.58198523608812       -0.40207593253548
H            0.21599102781389       -1.41484162676613       -0.15650301877038
H           -2.95411363823999        3.91626380263989       -0.10187928334697
H           -3.59906751218233        2.64977972494725        2.56978383261194
H           -4.85053883374374        2.87163418116735        1.33690484565245
H           -3.95920743283453        4.27061040274786        1.96036923118138
H           -1.10776037226732        2.38916898473916        1.73445924562432
H           -0.70361251881258        3.23749536407202        0.25012121829737
H           -1.28910950256625        4.14492119658094        1.67508510999040
H           -0.42278119471823        2.38850054802030        4.71309182950431
