72
 energy: 71.524620293641 xtb: 6.6.1 (8d0f1dd)
N           -0.49310636008170        1.44479029650441        4.52083888829619
C           -0.18402196565946        0.93995725045726        3.43355279528546
C           -3.01782252858656        1.93075656841256       -0.40254669720782
C           -3.51989051098912        0.66684257949348       -0.02961122213225
C           -4.15630316397654       -0.14495694355453       -1.00532780558993
C           -4.63598938153691       -1.39397871593132       -0.70842977628428
O           -5.29411987830065       -2.19405282233689       -1.59706914053201
C           -5.58258993230000       -1.67344721786944       -2.86370995761052
C           -4.47800299395562       -1.94214747240129        0.58433956130633
O           -4.94327956413905       -3.22061593539318        0.74914945939427
C           -4.81438443570362       -3.80836606756269        2.01436068728202
C           -3.88549767392834       -1.16412811804581        1.56624551016902
C           -3.42619923775982        0.10894648941496        1.27490032036351
C           -2.70146773704879        2.23744140077783       -1.79316706754973
C           -1.66616158675986        1.24422711301088       -2.51164605478309
C           -0.29476255294932        1.29211666602749       -2.05123945940671
N            0.26063391555705        0.40856107523926       -1.20395261437153
C            1.61159058157383        0.57386755847108       -0.75201118185817
C            2.62587232225080       -0.15787716516256       -1.64560561466580
C            3.99024455462372       -0.08414721887900       -1.02677878747625
C            4.77750986477904        1.04141840059505       -1.17379102865584
C            6.02815828677477        1.11357135125939       -0.57466510603286
C            6.51544540654657        0.05996780118060        0.18075708219151
O            7.73254738272541        0.02435818421396        0.80184680277212
C            8.59682667217520        1.12705721811501        0.66699518004444
C            5.71342423090309       -1.09670145768633        0.33929205264007
O            6.27612274593566       -2.09453081110609        1.07900919528777
C            5.56456760411743       -3.29290844237467        1.25931209138248
C            4.46538373242024       -1.14522236062690       -0.25759553156494
C           -0.41601243597442       -0.81395859196982       -0.85788832986541
C           -2.75883814771110        3.06698641935991        0.55489837270074
C           -3.80766314509911        3.21857413577220        1.66338102068664
C           -1.33136637743311        3.11175936532670        1.09383325403059
H           -4.33347584744025        0.27516901438281       -1.97964216737010
H           -6.20254807945404       -0.77036616230716       -2.81557839333440
H           -6.14107996340397       -2.45871540876845       -3.36264663037281
H           -4.67247426660377       -1.45679684798809       -3.43592333868725
H           -5.36792643531284       -3.25142636442619        2.78025574350043
H           -5.23959851586890       -4.80554129173923        1.92060017531529
H           -3.76096110078651       -3.90019890406556        2.30389214434308
H           -3.77524511866899       -1.55950408684057        2.57042617838462
H           -2.96024561783540        0.65472014347516        2.08123130363884
H           -3.59765938394640        2.20072750399511       -2.40353441338272
H           -2.26562100246715        3.23295792095900       -1.88845674026014
H           -2.09517928649955        0.24623071519822       -2.44480820140850
H           -1.69086626863174        1.62544258223530       -3.52746867984484
H           -0.40988439708455       -0.10461034606888        3.24802450409425
H            0.30349276712251        2.14700014909685       -2.32249944862058
H            1.68380717063089        0.19003942051935        0.26841526815359
H            1.86973404408130        1.63055021254177       -0.73827017906868
H            2.62886030105364        0.30674668733908       -2.63408740082141
H            2.31176966756488       -1.19596570008458       -1.75022242996308
H            4.42983147520544        1.87297817403749       -1.76905257174310
H            6.62194740526827        2.00290826318869       -0.71544002608554
H            8.16255922917721        2.03697381180760        1.09425626076790
H            8.85881886918912        1.30901521880688       -0.38072881387053
H            9.50090581585290        0.87156688848076        1.22135098850286
H            6.18760864075613       -3.93917815890283        1.88985806777408
H            4.61799498913277       -3.09669829904879        1.76881855828558
H            5.34747604460035       -3.78618459302259        0.30508885212856
H            3.84397202643433       -2.02126029972264       -0.14751124683194
H           -0.61046311301354       -1.42439811089012       -1.74299469268868
H           -1.36795950188967       -0.58249453186679       -0.38772883527395
H            0.19581822151400       -1.38514882929227       -0.15907322969034
H           -2.86084825568366        3.94596383865227       -0.08945793167570
H           -3.55642449859566        2.63157091137785        2.54139314265419
H           -4.79809600977574        2.90429162789637        1.31489535707488
H           -3.87502265643224        4.26567862890823        1.96223957029790
H           -1.11766146160288        2.25299085366063        1.71979454945803
H           -0.63637380234974        3.10613568133271        0.25657762478979
H           -1.19014150860956        4.01526827767726        1.68240192087658
H           -0.31695530464897        2.40902174727471        4.75560472471835
