72
 energy: 66.356705139876 xtb: 6.6.1 (8d0f1dd)
N           -1.90206955365853        2.32835405321819        3.07827621621505
C           -1.67319930808507        1.60461578543103        2.09149304829731
C           -2.56421696694580        1.79203208037919        0.53468414840138
C           -3.42759394527570        0.56598236497013        0.52309299551488
C           -4.10503897982662        0.03149790051684       -0.56899236830626
C           -4.73077564727163       -1.19795605001120       -0.49597564905557
O           -5.50241737871745       -1.75353255592292       -1.47151476182836
C           -5.84395837783906       -0.99254707967939       -2.60350417150518
C           -4.57007587946647       -1.98639011735124        0.64917697617461
O           -5.05985053859941       -3.25352271597454        0.61819686457614
C           -4.71547120369752       -4.03011450431786        1.73386660681226
C           -3.92516580899932       -1.45716923549951        1.74004279169127
C           -3.45288786852398       -0.16994036800941        1.69766438357254
C           -2.07777260207767        2.09998272602179       -0.97720805481504
C           -1.36242641621053        1.22558165060372       -2.01275822812714
C            0.10934347338749        1.12828534179260       -1.74992024324568
N            0.67394042648333       -0.08742989487142       -1.36444401351909
C            2.04380772994194       -0.01221121681675       -0.95387302829910
C            3.09235051352617       -0.50709911943546       -1.96768203410874
C            4.43657978422062       -0.35601391995404       -1.30610339255951
C            5.15632268552256        0.82499514007210       -1.35814085016124
C            6.34670908280359        0.95576957663018       -0.65117623116566
C            6.87755725873356       -0.08454750588295        0.11215125722209
O            8.12783894132118       -0.05948830655317        0.73817537570228
C            8.93594165655117        1.08473088105178        0.54652037432838
C            6.11227937373212       -1.28018152064706        0.21127169427633
O            6.67589011217560       -2.27355543158014        0.99151837615727
C            5.97834778623802       -3.47606808894674        1.20524300784475
C            4.92336342607942       -1.38471261168422       -0.50383125695986
C           -0.14669036075177       -1.16193428738589       -0.86577760867862
C           -3.35886396534704        3.13868920483190        0.78087366322911
C           -4.44755257728342        3.15820433856535        1.83721813285471
C           -2.28992218387954        4.21054155982886        0.98166240964463
H           -4.18697571985148        0.61175784476939       -1.46614349072888
H           -6.38526202828424       -0.07072215313485       -2.36919007396628
H           -6.50755139302498       -1.62848338721494       -3.18537227193199
H           -4.96479492592479       -0.72781697232941       -3.19217623079714
H           -5.11107317086901       -3.59099856694545        2.66844630905850
H           -5.17719829337459       -4.99852662909559        1.57253452607475
H           -3.62243831450082       -4.14478781851790        1.77911382880038
H           -3.76065619532617       -2.03424890058041        2.63092398147304
H           -3.02758909046255        0.21981182982802        2.59667700286939
H           -2.99339684493022        2.43259582593180       -1.46206930387465
H           -1.39482332722339        2.93949686253375       -0.94726337278420
H           -1.81380110753629        0.25440868386484       -2.03556399273076
H           -1.53463642087029        1.71907371989641       -2.98653610106755
H           -0.93072924509058        0.89972359601272        2.04798494158142
H            0.82162704348416        1.70371951804611       -2.34389100857721
H            2.16196612331858       -0.57950873119493       -0.03907702899381
H            2.29109799831961        1.01991953373543       -0.71483437444580
H            3.05074632073615        0.08154876585408       -2.87964591760224
H            2.88061304542908       -1.53762197052056       -2.24005265961771
H            4.79885758853140        1.65324269989606       -1.95090215270161
H            6.89657297897542        1.88101195149394       -0.70834489173720
H            8.47301832269628        1.97281396964854        0.98859634564891
H            9.10399988870437        1.27403738689483       -0.51764525208716
H            9.91084273842253        0.89579372463315        1.01377310281370
H            6.62158183096719       -4.16769965486668        1.78837927901274
H            5.05984316483861       -3.24912308159722        1.74388358708814
H            5.71525165912894       -3.96384282077874        0.26410705749134
H            4.33288328082936       -2.28783177914946       -0.47475285122735
H           -0.44072137391514       -1.82222911209268       -1.68080120428324
H           -1.06123233950907       -0.79005435181272       -0.39880837145459
H            0.38069938177598       -1.78914982081093       -0.11082549046041
H           -3.87463881616212        3.37558605071155       -0.15262211782523
H           -4.08506773359903        2.87842054462360        2.81121830586404
H           -5.19931990401628        2.36289337469637        1.63664199200120
H           -4.89812904920118        4.15459589983175        1.89744298270127
H           -1.55002566295159        3.84094079844128        1.66367334978339
H           -1.77439390805687        4.40251636870443        0.04677112028148
H           -2.72198451907014        5.12366190738167        1.36993672213957
H           -1.48382168029303        2.40899700345188        3.96919552396992
