72
 energy: 103.233333304285 xtb: 6.6.1 (8d0f1dd)
N           -1.59280440181056        2.23457076982043        3.22600198667754
C           -1.44559773773238        1.48421892756139        2.28192367979346
C           -2.59235309715124        1.78006349463174        0.37339512889706
C           -3.43392713039693        0.56457708534661        0.47945894714925
C           -4.09191447258674       -0.01221001320003       -0.61256556523645
C           -4.70640133342690       -1.24080560805632       -0.50250967763031
O           -5.44491575483470       -1.81627681150456       -1.49099042741646
C           -5.73452318127231       -1.08188826171884       -2.65437064166009
C           -4.59435551822847       -1.99441470386324        0.67967821457859
O           -5.06594024493287       -3.27237737314568        0.66147580276286
C           -4.74172900548929       -4.02061033806540        1.80175605138673
C           -4.01678780755329       -1.41631496742912        1.78673393083439
C           -3.53741567376580       -0.12279494262973        1.71485601543754
C           -2.17460766042685        2.10618168873287       -1.09881590699598
C           -1.43520446043957        1.21662073027799       -2.09095706480447
C            0.05058187560534        1.09050848562295       -1.95226543112192
N            0.63986247340106       -0.06822618164063       -1.49335429673681
C            2.00508630519113        0.06766967869697       -1.06679303528985
C            3.07820453527947       -0.45580846920397       -2.03051387610466
C            4.39035467732485       -0.30687957020472       -1.31532902625685
C            5.11451027282104        0.86888810991737       -1.36048218960824
C            6.30019038333127        0.98967408439122       -0.64460669045538
C            6.81714491484127       -0.05202750170751        0.12259056068402
O            8.05430576456668       -0.03249410217510        0.76968743644372
C            8.88153241835546        1.10287233799028        0.59196564380943
C            6.04371106967701       -1.24442167920432        0.21888424565877
O            6.60661408318626       -2.24080376331372        0.99288975476292
C            5.90686768745107       -3.44219548543049        1.21396918789233
C            4.85249216613833       -1.33705808126231       -0.49540132793427
C           -0.17652764302761       -1.10583173360546       -0.90728201099985
C           -3.23729976651205        3.13680342865714        0.78880840599469
C           -4.35106375747748        3.18654086801938        1.82046646265771
C           -2.08029617411768        4.10764161041176        1.05560077399915
H           -4.17469404807695        0.54519367076515       -1.52098559648865
H           -6.29002530660385       -0.15524117700071       -2.47481753630463
H           -6.37094373094432       -1.73656756499441       -3.24392992202416
H           -4.83107320879454       -0.82907902334362       -3.21341117554272
H           -5.18548616883147       -3.57875753384195        2.71399792126182
H           -5.16784071876178       -5.00620851633278        1.65077197418176
H           -3.64710846433090       -4.10771179022591        1.87759984741985
H           -3.90103455252110       -1.97448468409564        2.70409646792051
H           -3.17878258385172        0.27992202626204        2.64574813385550
H           -3.11119963549927        2.38219943662937       -1.59499593090300
H           -1.53720255880647        2.98441466122642       -1.10176363328179
H           -1.91001889898716        0.25864832283625       -2.10127745803734
H           -1.63665623289972        1.80092854693132       -2.99007129550756
H           -1.01782510610346        0.57064183906167        2.28191561317901
H            0.69006811109896        1.60249223298565       -2.66933949008620
H            2.10688457001634       -0.45683773932151       -0.12442827361756
H            2.24315476875696        1.10613203163600       -0.86188080613733
H            3.08316478628032        0.10021178598201       -2.96619581414801
H            2.83834994257991       -1.49075562989724       -2.23827881739029
H            4.78770988589357        1.69674004314946       -1.97201656445225
H            6.85506782831830        1.91258041928487       -0.71723130402405
H            8.42404639345918        1.99685742139832        1.02515918443885
H            9.07490596985833        1.29057218338335       -0.46791535115198
H            9.84382861075120        0.90427740565907        1.08079143354704
H            6.54023347319688       -4.12763807338769        1.81938714223035
H            4.98195180133569       -3.19213510992995        1.72994834688103
H            5.64911290529223       -3.94536725186055        0.27952821036549
H            4.25465357607021       -2.23699040241487       -0.45318632542294
H           -0.50796061228267       -1.79581699810930       -1.68673164059735
H           -1.07726631341767       -0.69833027407048       -0.44958512412330
H            0.36255438177058       -1.70287000599069       -0.13470580164223
H           -3.71029477501594        3.47306887272094       -0.13498388681762
H           -4.00381256041519        2.84145608034497        2.78465392066496
H           -5.18818251262888        2.49302207770161        1.55240691009551
H           -4.73510869060588        4.21904657721195        1.88396680078221
H           -1.37381366227432        3.65526062908566        1.72535813670670
H           -1.53423539186416        4.27447452580993        0.13011852369692
H           -2.43190262504152        5.04516517221094        1.47716455764654
H           -1.57119163133493        2.21077680135385        4.19941606106630
