72
 energy: 5.168523506638 xtb: 6.6.1 (8d0f1dd)
N           -1.75594153058784        2.87950640697199        2.47396526672181
C           -1.68838053268650        2.09876619366564        1.48067130837247
C           -2.75349379745146        2.01077530236087        0.41436723737694
C           -3.39436810340625        0.65063985431176        0.41563049396033
C           -4.29389347515186        0.20670373076511       -0.55409111161092
C           -4.85318406700689       -1.05740328977737       -0.50838515391714
O           -5.74984204446772       -1.56797800065452       -1.40400745696928
C           -6.25106164383681       -0.71545571534491       -2.40444624195899
C           -4.45167742611066       -1.94202523311858        0.50519706526415
O           -5.01516300639760       -3.18316241687483        0.46673500635089
C           -4.65656316650624       -4.06310986451128        1.49973159348678
C           -3.54309367109711       -1.51242969907110        1.45305673153347
C           -3.03234269068298       -0.22838961878102        1.40910073057716
C           -2.14639434894435        2.27150672160859       -1.01271501558227
C           -1.25999760472031        1.21612841983057       -1.73961952743620
C            0.08442998294023        1.14266055836096       -1.09614091238220
N            0.68279285516267       -0.08105714506141       -0.73206008883205
C            2.06282775749316       -0.11486708104701       -0.34440992209075
C            3.02949097734263       -0.59077250470452       -1.45346465993264
C            4.44358536449167       -0.46089910085979       -0.97085251116226
C            5.16204877354267        0.71144370032119       -1.12121735186913
C            6.44577736968155        0.84023419759675       -0.59890914853372
C            7.04694674305771       -0.20047851104744        0.09009120165571
O            8.31156977035880       -0.17628686356473        0.60771751453344
C            9.06411502829004        0.99000300852317        0.38294743408656
C            6.31504659636285       -1.39655050733181        0.26060932577976
O            6.92119720841320       -2.37542675795578        0.99738738350209
C            6.22720929632662       -3.58109815976587        1.17658438804654
C            5.04363163680728       -1.50712409918713       -0.27363434661518
C           -0.06746367709465       -1.31128366602266       -0.67082210011671
C           -3.81402463121105        3.11632037671993        0.62100852862608
C           -4.58161324387949        2.88033376222468        1.91694924479905
C           -3.09885353814207        4.45600135302838        0.63113639928169
H           -4.54209344893294        0.85840772010370       -1.37466621186715
H           -6.72877181751416        0.17380890453762       -1.98078155160573
H           -6.99659208824659       -1.29196064037902       -2.95185332245869
H           -5.46366123578823       -0.39547558234180       -3.09141654225105
H           -4.90456281353965       -3.64013582178479        2.48435996272475
H           -5.23214085019567       -4.97180715397822        1.31821570394181
H           -3.58532312955714       -4.29782214695038        1.46280524003920
H           -3.22184437889033       -2.15876968139885        2.25296344547211
H           -2.35016533339332        0.09769112905232        2.17506156514376
H           -3.03286327707661        2.49479826127558       -1.64285071206704
H           -1.53554470905452        3.16985326612266       -0.94162949339758
H           -1.74839222062273        0.24818955128162       -1.72396190722388
H           -1.15523678722324        1.46369351293069       -2.81559199826287
H           -0.79603904327355        1.50861788688710        1.11821647408754
H            0.77358831883452        1.94873055663281       -1.32517228900370
H            2.22257631327585       -0.75377119778012        0.53852574943184
H            2.34138176227520        0.90118365116225       -0.07849975942676
H            2.85530510895094        0.02488874717267       -2.34203266835842
H            2.79525134965725       -1.62761064360358       -1.70224233060188
H            4.72286094207062        1.54619345786734       -1.64714573816233
H            6.95124101850653        1.78204514980772       -0.72596807366017
H            8.60378388010941        1.86327360095127        0.85855404745902
H            9.17238128381748        1.18591042958856       -0.68916377412704
H           10.04829162158939        0.80358887938859        0.80980636403878
H            6.92065953122594       -4.24856237590541        1.69444705332686
H            5.32803782309052       -3.43319727669256        1.78000181141923
H            5.94502821364422       -4.02764187107341        0.21687250263350
H            4.47647686257218       -2.41299785100249       -0.14675868527624
H           -0.24261950769075       -1.73637509643331       -1.65954555296931
H           -1.03243542466551       -1.13182350008720       -0.18803242886818
H            0.47758938250116       -2.05552579101011       -0.07259177841159
H           -4.50351989195683        3.11495033419253       -0.23121396146791
H           -3.81880402874476        2.87008213353943        2.68209606269395
H           -5.07320011246777        1.90230127337590        1.92785231813655
H           -5.29254969426214        3.68315832515633        2.12978083740707
H           -2.33242695875360        4.38070977646492        1.36651838469937
H           -2.66415829726381        4.66867657447661       -0.33891138170115
H           -3.76653301029590        5.26685404862918        0.91000156232794
H           -0.93074890932046        2.84934463380454        3.06758125323334
