72
 energy: 30.833190378627 xtb: 6.6.1 (8d0f1dd)
N           -1.95171102812860        2.70092041967940        2.80206043040125
C           -1.75754994770493        1.90906163147576        1.83595143014077
C           -2.66166236711052        1.89105470446565        0.58706792379068
C           -3.42709908949296        0.60641262575801        0.51318832299166
C           -4.20012906981339        0.13262213851927       -0.54919669631002
C           -4.80377796289134       -1.11157473593264       -0.50323062214009
O           -5.64572583055416       -1.64344345546153       -1.43541336055068
C           -6.08633188864335       -0.82862354207230       -2.49468202833111
C           -4.50077193806428       -1.95808379219152        0.56746724971772
O           -5.03798914174878       -3.20716414997861        0.53177781800496
C           -4.66782201418311       -4.04339217605477        1.59693485108398
C           -3.68846632381593       -1.50695575803265        1.58275883843501
C           -3.19500809579307       -0.22919411949358        1.56216534476391
C           -2.00499493931537        2.14560236993294       -0.85395646112888
C           -1.26384356546700        1.22050663192034       -1.84448639780712
C            0.14963647283433        1.13631457670959       -1.37026186106852
N            0.70876618175752       -0.09615551278744       -0.98380901477282
C            2.08321167837256       -0.11786141533684       -0.58709366038314
C            3.08474994726461       -0.59512577597446       -1.66205489250395
C            4.48080064077831       -0.45626044477787       -1.11834205611590
C            5.19317092789147        0.72562419247826       -1.22134301041394
C            6.43220097630934        0.87291359225899       -0.61443038629410
C            7.00647893228278       -0.16461117680573        0.10631065003445
O            8.26685188970514       -0.12851405948411        0.67221396147518
C            9.02769185018534        1.03558367209866        0.45119792629009
C            6.26400142241815       -1.36294048447293        0.24026749892635
O            6.83387117236442       -2.34621413214895        1.00531938190692
C            6.12485354984385       -3.54226142188171        1.19194844950599
C            5.03949874096152       -1.49216093854088       -0.38513928359496
C           -0.09444352837317       -1.26781581132296       -0.75090920357666
C           -3.62699012481489        3.12779897962827        0.70192495963183
C           -4.56814252325343        3.01217155874171        1.88451024854990
C           -2.74861157832638        4.36517316918303        0.77362781711162
H           -4.36725458791990        0.75679538629018       -1.40957810496494
H           -6.59323080296856        0.07754013893492       -2.14854974993139
H           -6.79948700110694       -1.42675107013846       -3.06042913254551
H           -5.25910651122956       -0.53358989570537       -3.14133382325338
H           -4.96992704034218       -3.61184816970598        2.56534275887726
H           -5.19371768740750       -4.97974023867256        1.42190600207418
H           -3.58377157583719       -4.22074409915757        1.58832870003344
H           -3.43040189480944       -2.12140496226952        2.42078907218482
H           -2.60729486358137        0.13610649121531        2.37633174609437
H           -2.88080754424400        2.52515275184812       -1.39762289054001
H           -1.27883269984875        2.94123100782487       -0.75866977864164
H           -1.72865186516789        0.24719111401268       -1.86842952640208
H           -1.31862632911262        1.57554206501853       -2.89517656686026
H           -0.86902509619789        1.32937930638384        1.55486890477206
H            0.87082973142362        1.85985548814965       -1.74420949617853
H            2.22579795015587       -0.75335632845758        0.29283202635125
H            2.34964516576109        0.90416511167896       -0.32563617113241
H            2.94778653335102        0.02291354750475       -2.55368555042499
H            2.86128577675171       -1.63105189816721       -1.92336316692175
H            4.77529162589152        1.55809202984513       -1.76615741410618
H            6.95905324515939        1.80948750496853       -0.68023242278679
H            8.55588227574396        1.91172294165057        0.91126482012455
H            9.14723323950203        1.22469732242906       -0.62023006821401
H           10.01738566954306        0.86537067921742        0.88314302186017
H            6.78998135682658       -4.23030720158735        1.73413334473819
H            5.21605142711719       -3.35805040682643        1.76676132523896
H            5.85112874697459       -3.99397294085089        0.23406344779430
H            4.45830085265826       -2.39342567212869       -0.30393000442237
H           -0.28721139171615       -1.83417777699532       -1.66249006277784
H           -1.04375151230811       -0.99633122803383       -0.27999417182218
H            0.42685412436063       -1.95582720914309       -0.06311160115920
H           -4.23736476879039        3.21695407042963       -0.20351800091182
H           -3.97636040190656        2.88335627949790        2.76600765560537
H           -5.16026013999878        2.08474651555969        1.82395643038184
H           -5.18656689041380        3.90318422238909        2.02207116804079
H           -1.99180356934081        4.15350125863958        1.49150890608721
H           -2.27625546833177        4.55725259660815       -0.18175986301882
H           -3.31315409567744        5.23441746220638        1.09055222671471
H           -1.20369258101237        2.83107261691619        3.45213139918479
