72
 energy: 125.389709103890 xtb: 6.6.1 (8d0f1dd)
N           -1.26063917350731        2.10209938226552        3.42430812786719
C           -1.12688937092799        1.34859182170288        2.49999119784863
C           -2.67514034183457        1.77961134189643        0.18373527549342
C           -3.44750085912329        0.57696714209211        0.40660854763637
C           -4.09096409574790       -0.05267275175358       -0.67819145558820
C           -4.68577953655919       -1.27991892818746       -0.52464580069898
O           -5.39821570015493       -1.88407109850536       -1.51281395887504
C           -5.64264970659063       -1.17730306325308       -2.70100013864797
C           -4.60250755047214       -1.99554051571539        0.69357896824021
O           -5.07002234870115       -3.28236234666297        0.69847044889076
C           -4.77056232979790       -4.00647495211041        1.86056792216429
C           -4.06196842938842       -1.37450111700698        1.80306547789198
C           -3.56095981173472       -0.08225118667142        1.68963321685346
C           -2.28540945776951        2.12671370819894       -1.24276470492628
C           -1.50046189894662        1.21073787647463       -2.18488837318100
C           -0.01593608860119        1.04256819709644       -2.11975353605629
N            0.59331167604229       -0.01279666993159       -1.51839973260135
C            1.94555005082346        0.15875690650023       -1.06353556311612
C            3.00962994811192       -0.40486537518459       -1.98811157834141
C            4.31634324183987       -0.26310637147598       -1.26668703591482
C            5.04895780909228        0.90585812066348       -1.32752604664431
C            6.24704560387486        1.01769949143142       -0.63061282075489
C            6.75832114747998       -0.02570132679674        0.13584372918679
O            7.98522546422615       -0.00760286644202        0.79119643632705
C            8.82840773870684        1.12004891445763        0.62974020129572
C            5.97918049112212       -1.21366411746724        0.24048388153636
O            6.54215780584638       -2.21522119053302        0.99888066778551
C            5.83595494269541       -3.41226741542891        1.22407516582222
C            4.77602109584283       -1.29773305735551       -0.45281543962368
C           -0.21114485139534       -1.04964213585563       -0.91873867313431
C           -3.13153341235001        3.12689867342198        0.76196346971219
C           -4.25229189005565        3.19567911624879        1.79156205600191
C           -1.88505382556311        3.94964843572813        1.09273819831836
H           -4.18877912614128        0.48070338123667       -1.60556079462074
H           -6.20881269799226       -0.24733313790215       -2.56905825019241
H           -6.25331555556842       -1.85240321404191       -3.29159348510430
H           -4.71853927609552       -0.93743130864715       -3.23488735582779
H           -5.25547941965360       -3.55981341655753        2.74763545256853
H           -5.16619199759475       -5.00723338786423        1.71961824489116
H           -3.67714394339734       -4.07165142493886        1.97058980990232
H           -3.99145303192817       -1.91295325230351        2.74593600488531
H           -3.23997101948546        0.33585991101159        2.64163007447081
H           -3.22610708938945        2.34524867600424       -1.76108783176395
H           -1.69073057302649        3.03910367845465       -1.26339629983965
H           -2.00606332418421        0.26616799309969       -2.16363588391105
H           -1.70886697304414        1.81200318832244       -3.05660606232191
H           -1.06066519431412        0.34023361276877        2.40855412929198
H            0.56477205603367        1.51700727129282       -2.90634961629654
H            2.03211555752833       -0.31633950024975       -0.08445636111242
H            2.19506068140107        1.20012883836930       -0.92961835666556
H            3.03629013196732        0.12968767321090       -2.94232853078048
H            2.73836068776063       -1.43900460793089       -2.15726573488497
H            4.71337994514143        1.73367188954744       -1.93612155404757
H            6.80968931937375        1.93469476164953       -0.71764683449787
H            8.37712837175195        2.01977851695505        1.05653134446321
H            9.04872640621222        1.30715414839325       -0.42510696205557
H            9.77651588646114        0.91480187227501        1.14159074480484
H            6.45906294308180       -4.08870929738213        1.84981028695781
H            4.90407101745250       -3.14617744979183        1.71988078232283
H            5.58399130907989       -3.92944768622629        0.29455455002319
H            4.17017068761942       -2.19167785520903       -0.39928583964713
H           -0.53941609859113       -1.73744904629567       -1.69755744755733
H           -1.10931085296973       -0.63081357876890       -0.48220079510474
H            0.33880430174596       -1.62680417400422       -0.14677575153538
H           -3.55132499182502        3.58895002615269       -0.13476691828645
H           -3.91508638717839        2.79121159677631        2.73937730681944
H           -5.16467290066543        2.60712111549832        1.48671333642414
H           -4.56832411745275        4.24595503859548        1.90756274586929
H           -1.24959334589071        3.39052515570509        1.75067352224508
H           -1.30847657697738        4.08581103863065        0.17943704718111
H           -2.14305230901943        4.90069541907081        1.54859888284418
H           -1.38121550752895        2.12845956137731        4.37429964871498
