72
 energy: 101.874751247054 xtb: 6.6.1 (8d0f1dd)
N           -0.74381582984338        1.57939363510648        4.04385364445121
C           -0.68082707107643        1.14780510514625        2.91296101543329
C           -2.84480993233080        1.83416736576945       -0.13568971140705
C           -3.48373186062931        0.61635591730822        0.18733047922642
C           -4.11710373083406       -0.10861963463413       -0.84591401680281
C           -4.65450496326274       -1.34634805003553       -0.61071722751812
O           -5.33506954811251       -2.03860955604813       -1.55997189587081
C           -5.54729157359112       -1.40190538582626       -2.78959474345524
C           -4.54681329411758       -1.97997419544262        0.64776663208344
O           -5.01967288312712       -3.26814677685306        0.73209126988157
C           -4.80709622143295       -3.93019493667118        1.95039462148376
C           -4.00092533252304       -1.27072271559536        1.70736352268164
C           -3.50752014966515        0.00800362107764        1.49016970000384
C           -2.49824340555497        2.17977428290323       -1.52338254328960
C           -1.59846701111501        1.20911680797643       -2.36368650153643
C           -0.14583267666798        1.09210234028478       -2.17868604643917
N            0.44063191320197        0.19909224183505       -1.36453202301614
C            1.78555802774302        0.37020150867594       -0.91279995360758
C            2.82182899179148       -0.28250249710913       -1.82142763680346
C            4.15614558550773       -0.17409275713915       -1.15021337335890
C            4.91564942756712        0.97468282400157       -1.25307305699931
C            6.14005175864127        1.06725722655205       -0.60244226981981
C            6.63944559992582        0.01934885450321        0.16009119043703
O            7.85888292361791        0.01457965969227        0.80868283840753
C            8.71729486055242        1.12908904047424        0.66805789078964
C            5.84904891609883       -1.15397168615539        0.28946489845864
O            6.41365315908649       -2.15524309510106        1.03508818752666
C            5.69955160877480       -3.34918235980517        1.24075942887626
C            4.62268664699146       -1.22169559671697       -0.35801963403953
C           -0.30492948378312       -0.93504796060062       -0.88994215140944
C           -2.94062703112453        3.10445140174960        0.67574461644748
C           -4.03425674946329        3.21293050813077        1.73541165117249
C           -1.55932537460895        3.55942708448634        1.11546668601312
H           -4.25699568944174        0.37273582176336       -1.79692002819013
H           -6.13712139237980       -0.47792086533617       -2.71970384770942
H           -6.11611145481813       -2.12311508913806       -3.35750318013728
H           -4.60615978565479       -1.17764884990736       -3.30513557578230
H           -5.33971562277907       -3.43078580305938        2.77433599215627
H           -5.20318928298791       -4.93444597197920        1.83189546880187
H           -3.72861349761604       -4.00527640208736        2.14862216927213
H           -3.95499472318696       -1.73590545090081        2.69676313590501
H           -3.11090848849267        0.50449114103746        2.36922365217744
H           -3.42582508879564        2.27366471948831       -2.08566229343498
H           -1.97693115732661        3.13860632868716       -1.57189433166412
H           -2.09967283437678        0.25681530291092       -2.28744832511624
H           -1.74416109416779        1.71346561063423       -3.30584209242129
H           -0.69010781470867        0.11009702447719        2.75556650004102
H            0.47917781674521        1.78423819079657       -2.71933782137827
H            1.86357273418296       -0.05386071071545        0.09187521258305
H            2.03932970069203        1.41951805655348       -0.85845207541584
H            2.83514004409846        0.21836491516918       -2.79334134822528
H            2.52449504151797       -1.31846236352081       -1.95501972786437
H            4.57226984282401        1.80403015516584       -1.85539618868720
H            6.71736068671228        1.97172683134654       -0.71489701666874
H            8.27401827249099        2.03589735506213        1.09025620870321
H            8.96614371747155        1.31124578483335       -0.38217913901647
H            9.64202650340288        0.91024262125494        1.21332268182551
H            6.30775985899065       -4.00900230726251        1.89340506473923
H            4.74992488486067       -3.08421916187055        1.70329069931948
H            5.46807080539816       -3.86688728128311        0.30411744748054
H            4.00673418981121       -2.10603766717695       -0.27764793744717
H           -0.57640745655530       -1.58506997711218       -1.72230105833508
H           -1.21988898390675       -0.58039938184215       -0.45273429663011
H            0.28093101689827       -1.50001735894280       -0.15107305945099
H           -3.21937241893584        3.79728103963593       -0.12182446870270
H           -3.73373268186113        2.71204465027539        2.65190396374443
H           -5.00238659182865        2.76833334732365        1.39496928812572
H           -4.22531473031901        4.27370907842608        1.94569196352431
H           -1.12170056084463        2.81281400436016        1.76410356000993
H           -0.93133347160990        3.61461173471946        0.22769385704698
H           -1.61841038569751        4.51103773943806        1.63344098026772
H           -0.86907692840343        2.37178785115435        4.53712526772275
