72
 energy: 118.239079993104 xtb: 6.6.1 (8d0f1dd)
N           -1.42587064368001        2.18223464446214        3.32344903418892
C           -1.28286186106388        1.42469716539007        2.39464710720636
C           -2.63416616317964        1.77811873364897        0.27514350634498
C           -3.44268812792694        0.56950155321665        0.44495705479604
C           -4.08946441219853       -0.03491911144829       -0.64611113551072
C           -4.69425464338194       -1.26280387178902       -0.51363478952162
O           -5.41989154764882       -1.85122578305058       -1.50276959683063
C           -5.68535848661138       -1.12835612816905       -2.67796878665213
C           -4.59922954595428       -1.99576584922161        0.68848815280325
O           -5.06791877475512       -3.27871934233138        0.68186029677687
C           -4.75634116058761       -4.01512483993478        1.83287991387810
C           -4.04525913141242       -1.39433880443824        1.79893347154619
C           -3.55848830305371       -0.10013115020994        1.70989834113902
C           -2.23255426968361        2.11549505375434       -1.16893923260343
C           -1.47039282228542        1.21433820362787       -2.13487811703151
C            0.01598939221317        1.06370467493821       -2.04432182709712
N            0.61790580792836       -0.04586602999735       -1.52211389095861
C            1.97898330128908        0.11141606112720       -1.08397876111272
C            3.05092908683445       -0.43135640375437       -2.02058015091152
C            4.35469782975156       -0.28520327761561       -1.29218257966189
C            5.08237965438067        0.88747349144717       -1.34469276571576
C            6.27407791494580        1.00372770674113       -0.63770499282230
C            6.78805461484374       -0.03883377838486        0.12935448631972
O            8.01943029361169       -0.01979156837847        0.78189249493159
C            8.85545458194555        1.11140371806192        0.61189970400824
C            6.01146188231758       -1.22887602998769        0.22996784042411
O            6.57431838117742       -2.22748324830179        0.99638308113895
C            5.87172086298357       -3.42704953988255        1.21938529556278
C            4.81452989689820       -1.31731074935359       -0.47473359796129
C           -0.19265182620169       -1.07770853058742       -0.91674278231012
C           -3.18510044349689        3.13267996172222        0.77649991577702
C           -4.30248621850913        3.19235790730902        1.80615715312518
C           -1.98062673537777        4.02961981232414        1.07793381262434
H           -4.17965115563449        0.50906179241617       -1.56574849052211
H           -6.24591842725191       -0.19951394467303       -2.52266016080987
H           -6.30911714166664       -1.79197439037403       -3.26947682242063
H           -4.77083730754937       -0.88128016411859       -3.22330752585086
H           -5.22172155712255       -3.57193272140093        2.73321314521678
H           -5.16764561742910       -5.00790661280625        1.68595191204724
H           -3.66199743688287       -4.09255077537283        1.92457536531251
H           -3.95294576798550       -1.94173938924759        2.72989673535338
H           -3.22495593584721        0.31179632385786        2.65159877931927
H           -3.17101885108670        2.36456206606260       -1.67850666788515
H           -1.61487545180321        3.01008252543972       -1.18069249409240
H           -1.96130071881201        0.26334810993856       -2.13362727760336
H           -1.67916331926840        1.82591084625278       -3.00403477323614
H           -1.07584913892545        0.43968519761591        2.37363377462365
H            0.62139210839780        1.55860107291453       -2.80097959214427
H            2.07203018991109       -0.38900456744552       -0.12213294413088
H            2.21864798189701        1.15238222462079       -0.90917917672821
H            3.08474212658979        0.10600726215449       -2.97249500303429
H            2.78992203995737       -1.46608174066368       -2.20033607252995
H            4.74928250043410        1.71525083215047       -1.95418769161197
H            6.83268568529942        1.92385400428044       -0.71719834971355
H            8.40084035878068        2.00829997282962        1.04110047235305
H            9.06179716140096        1.29860240360288       -0.44554802323038
H            9.81130787631407        0.91026842212679        1.11172953219721
H            6.50005750658973       -4.10915147717513        1.83443344486535
H            4.94293746306290       -3.16773346368829        1.72396170643304
H            5.61665344916350       -3.93673833667363        0.28738934921847
H            4.21251031650428       -2.21418125354234       -0.42761384540511
H           -0.52674045973625       -1.76964130847109       -1.69105583024230
H           -1.09092046078721       -0.66146512895206       -0.46886474285952
H            0.35293394921958       -1.66176268759496       -0.14147199882416
H           -3.63255905056368        3.53334795920971       -0.13560047045097
H           -3.95756568094057        2.81836963289698        2.76270624672164
H           -5.17858987173292        2.55219063489959        1.51484516511909
H           -4.65604689640137        4.23433935306238        1.89375734167859
H           -1.31019518366344        3.52117883819623        1.74290464840610
H           -1.41697941875246        4.17981412471861        0.15944418369970
H           -2.28475870771812        4.97565571634497        1.51728262553664
H           -1.49788609959920        2.15593273690005        4.29140710080096
