72
 energy: 21.810343998265 xtb: 6.6.1 (8d0f1dd)
N           -1.90776033322152        2.79639977430908        2.68711337417734
C           -1.74523481084850        1.99432752213728        1.72016758124104
C           -2.69826726090562        1.93511258734503        0.53357532235891
C           -3.41919428098545        0.62384880600239        0.48183675875380
C           -4.23452836508858        0.15863008454673       -0.55143821950644
C           -4.82328536907930       -1.09253587819297       -0.50556314958811
O           -5.68288075511426       -1.61806575052212       -1.42622930566133
C           -6.14518843214693       -0.78993945969211       -2.46616913665527
C           -4.48412817495120       -1.95140676232013        0.54620107093293
O           -5.03134607355333       -3.19721229331915        0.51040832904795
C           -4.65971637552821       -4.04751219596229        1.56378023094106
C           -3.63396377053457       -1.50900539386346        1.53715071437228
C           -3.13340156585700       -0.22961841349034        1.50933824376328
C           -2.05304179590870        2.18763767639640       -0.90079561929186
C           -1.25988899500481        1.21651054543151       -1.80671868633937
C            0.13353998583592        1.13625798192299       -1.27577376529765
N            0.70720657147154       -0.09458165123529       -0.89374293563778
C            2.08436610915763       -0.12845669135343       -0.49878125601024
C            3.07777394546193       -0.60413393877589       -1.58476922264371
C            4.48235016466714       -0.46694007075019       -1.06768837754171
C            5.19496531971467        0.71231601210734       -1.18506920595732
C            6.44659608247247        0.85738114027554       -0.60549961440488
C            7.03038709630046       -0.18050574018230        0.10334474097649
O            8.29162364448345       -0.14470910774433        0.65408540704938
C            9.04404424693424        1.02264297753034        0.42762823920251
C            6.29279227289033       -1.37876264430766        0.24801314721067
O            6.86940646786778       -2.36009042756731        1.00593859931006
C            6.16082820072726       -3.55668432778240        1.18801028002083
C            5.05531376461962       -1.50672047257157       -0.34867589374252
C           -0.08425707003681       -1.28623698329721       -0.72122981949363
C           -3.69635817195915        3.12698329660630        0.67232074492116
C           -4.58294147360357        2.96671577297578        1.89499352035238
C           -2.86914018115695        4.40006050815438        0.72105454643014
H           -4.42867661731168        0.79159039680101       -1.39949600492306
H           -6.64279369097572        0.11092516046100       -2.09310199761403
H           -6.86955568287228       -1.37940707584460       -3.02744645883525
H           -5.33110529210242       -0.48633807466126       -3.12651145765092
H           -4.94179315991958       -3.61803063340283        2.53817960372168
H           -5.19902181290948       -4.97682972505073        1.38682475199815
H           -3.57889573320912       -4.24102106921075        1.54373653587381
H           -3.35385552167063       -2.13412046370346        2.36244494208863
H           -2.51010583226843        0.12210459945042        2.30626563945145
H           -2.94384125815588        2.51857857586251       -1.47326200185263
H           -1.36036907383724        3.01658076561710       -0.81106455491947
H           -1.73182827036735        0.24510233003595       -1.81691368857394
H           -1.26386443353761        1.53495895614220       -2.87058639294053
H           -0.85152963521793        1.39775063972395        1.41831438561868
H            0.84351005079471        1.89167726337745       -1.60303081228716
H            2.23160134897149       -0.77147883910333        0.37885785439502
H            2.35567105851252        0.89105913920056       -0.23417123650974
H            2.91965618845825        0.01477695477834       -2.47353109970395
H            2.85315438348010       -1.64227336758861       -1.83772503027548
H            4.76696513257025        1.54611465831244       -1.71928455909510
H            6.96131915157002        1.79896352872244       -0.68671221376985
H            8.57288520948800        1.89656712523639        0.89222547760741
H            9.15632581942515        1.21202492253291       -0.64474472612612
H           10.03412568436918        0.85576573833850        0.85523973717236
H            6.83349278506056       -4.23938855914835        1.72188361415331
H            5.25482792484221       -3.38290918656399        1.77155442037735
H            5.88452870433565       -4.00296469525359        0.22770329272049
H            4.47779146278057       -2.40856678248171       -0.24845782167196
H           -0.26938001816119       -1.80660526308236       -1.66092905802089
H           -1.03977445153401       -1.04385503334581       -0.24684138916272
H            0.43967260574218       -1.99453124848752       -0.05947082629771
H           -4.33150268747529        3.18666238842240       -0.21704246866841
H           -3.92374242728181        2.87920537604712        2.73511609792191
H           -5.13889956577004        2.01861240298558        1.86441389412689
H           -5.23639066293216        3.82827651804516        2.06095085636069
H           -2.11028067809476        4.23130080416827        1.44660922887863
H           -2.40609707936235        4.59516381752788       -0.23817794547829
H           -3.46595680525606        5.25295871819312        1.02355541289684
H           -1.12838905985454        2.85157728280661        3.32300785921330
