72
 energy: 69.803723969107 xtb: 6.6.1 (8d0f1dd)
N           -0.37775402258907        1.48450573307476        4.59806043897097
C           -0.12168737356307        0.91037320190917        3.53191819121269
C           -3.02757251788916        1.94427606648669       -0.47166306970202
C           -3.52915470985006        0.68159980036240       -0.10597782060818
C           -4.17198407746592       -0.15515981042300       -1.06389325482108
C           -4.63165034346179       -1.40873418150114       -0.74743668912379
O           -5.27509850388967       -2.25198755905175       -1.60962053202629
C           -5.60398464131267       -1.79054636667626       -2.89219540318228
C           -4.45166307917967       -1.92443518960066        0.55976536268825
O           -4.91651883953178       -3.19134107666798        0.76033696523212
C           -4.81722009221083       -3.75541855460654        2.04023777429043
C           -3.83845979404756       -1.12357338340685        1.51063588337840
C           -3.39564416821102        0.14394021539383        1.19466411480571
C           -2.75317407955662        2.25005546795215       -1.88997138445305
C           -1.69767029363425        1.27182433558437       -2.57125979499842
C           -0.36929209281578        1.38003496059483       -1.99157362840879
N            0.18379999225424        0.48631740510655       -1.15520244027656
C            1.53582001134839        0.65633721609392       -0.69004305801363
C            2.54610942225713       -0.10517755216496       -1.57414598971951
C            3.92306360507179       -0.04674844556013       -0.97690989286696
C            4.72202782441791        1.06951575368736       -1.14147152969901
C            5.98320495208009        1.13234771657358       -0.56505446024279
C            6.46416634091895        0.07640940806267        0.18887698544771
O            7.67713329394797        0.02681371957720        0.79710331291176
C            8.54875604210847        1.12173547143469        0.66693246568713
C            5.65614723348620       -1.07317236411975        0.35992614190708
O            6.21279652433693       -2.06733538400253        1.09932059549770
C            5.50731720489797       -3.27164228432254        1.26185174991481
C            4.40083631312587       -1.11435079041791       -0.21850837643002
C           -0.45896733680434       -0.76676092930976       -0.85125868530705
C           -2.69150185669908        3.04201644194814        0.50679753870646
C           -3.72076910318118        3.21542776833315        1.63311138096461
C           -1.26949469837229        2.93919175887142        1.07506136997633
H           -4.36498744921553        0.23946417237592       -2.04771310637450
H           -6.23536975866785       -0.89636961458162       -2.85222970072354
H           -6.16150123426068       -2.60151242343117       -3.35912233037380
H           -4.71031446721439       -1.57899981995559       -3.49077576561944
H           -5.37949304084659       -3.18072712978693        2.78417418633153
H           -5.25194945844237       -4.75045800385382        1.95244071068062
H           -3.77437970174656       -3.84620400871658        2.36445912625312
H           -3.70049365222714       -1.48611071154785        2.51831600780277
H           -2.89992633609748        0.71319809446578        1.96070111315500
H           -3.65653667023530        2.18229367449847       -2.49817764632305
H           -2.36192917230660        3.26306032138461       -2.00021454100004
H           -2.09303934966532        0.25969729171773       -2.51658005350078
H           -1.64485071276620        1.58039694862684       -3.61759623693662
H           -0.32427061293858       -0.14328173491374        3.38237492545596
H            0.19983518065851        2.27835404978086       -2.16731634647029
H            1.60285405142315        0.28639745367161        0.33634374857695
H            1.79626914617815        1.71669015182592       -0.68472310626253
H            2.54489915619888        0.34570829513939       -2.56833410073703
H            2.22849818591283       -1.14475560654002       -1.66957866330837
H            4.37308344475226        1.90252772841672       -1.73320829765654
H            6.58550213435656        2.01353222405562       -0.71877609387320
H            8.12125548564108        2.03222067102257        1.09962179397104
H            8.81458527951981        1.30481640060203       -0.37934437214863
H            9.44390731654500        0.84550734810423        1.22210334890114
H            6.16662883601889       -3.91766299278253        1.83931287446836
H            4.57275669751633       -3.12523499066532        1.81379910535542
H            5.29224259143091       -3.74473166848735        0.29800522706370
H            3.77866707404230       -1.98774498495754       -0.09513845963490
H           -0.61837086849659       -1.36818755356763       -1.75032783397730
H           -1.42563796688621       -0.59326349806353       -0.37239923360995
H            0.16959712618368       -1.33162861171007       -0.16775363513644
H           -2.72192667171575        3.97141508761624       -0.07799511001539
H           -3.49263407670989        2.60047293129997        2.49815831223335
H           -4.71832511148491        2.96034397570330        1.28436398323284
H           -3.72837409585311        4.25312832963623        1.96069194002269
H           -1.13790628124335        2.04559705991144        1.68312747946831
H           -0.54170571845815        2.91313018053485        0.26773596738421
H           -1.06584400301002        3.80917009615576        1.69524704610959
H           -0.19083323899188        2.47270313476573        4.74039980360017
