72
 energy: 89.950262070195 xtb: 6.6.1 (8d0f1dd)
N           -0.75272755549425        1.52204820509201        4.17477492331952
C           -0.49298907461945        1.09266421472143        3.05366506494167
C           -2.88279952566214        1.85468089399534       -0.20373411114712
C           -3.48957447146299        0.62744523320644        0.13449813661572
C           -4.12679645766795       -0.11627468408427       -0.88447880843498
C           -4.65173538886647       -1.35762221936561       -0.63455344385608
O           -5.32454823881343       -2.07822155659038       -1.56875822990716
C           -5.55073359601880       -1.47290787623281       -2.81102811283537
C           -4.52984107008475       -1.96962566085758        0.63260915240604
O           -5.00003884821361       -3.25585283958542        0.73403192468737
C           -4.81074357652398       -3.90036643260380        1.96538639987190
C           -3.97190908561823       -1.24248508757257        1.67420892082316
C           -3.48574870205393        0.03402062580191        1.43942147717661
C           -2.54595263318558        2.19744332001347       -1.58831925769646
C           -1.61720978965978        1.21747614245483       -2.40158292379613
C           -0.17978123546581        1.14229350288629       -2.14780779727733
N            0.39541729063169        0.25503233891754       -1.32286233927852
C            1.74335724916936        0.42257705758761       -0.87114047854782
C            2.77222007277612       -0.25114398811152       -1.77721720572827
C            4.11446589368327       -0.15174081419787       -1.11876888765527
C            4.88021033367746        0.99208974895125       -1.23229285113250
C            6.11160040929660        1.08045697752556       -0.59478103193795
C            6.60803742815207        0.03022080279613        0.16412590364326
O            7.82668780583924        0.01853807216956        0.80652356004171
C            8.68660473692245        1.13004124639930        0.66898371645627
C            5.81671804352155       -1.13982108644666        0.29983703151937
O            6.37947614881981       -2.14102565815528        1.04387269702329
C            5.66354770024566       -3.33420852484331        1.24342403297700
C            4.58410969432905       -1.20309278394093       -0.33345837088144
C           -0.33354426077125       -0.90475831213736       -0.87971701265764
C           -2.89597948993006        3.09830032037589        0.64497395733298
C           -3.97692606394494        3.21038429610720        1.71703943184110
C           -1.49176092463355        3.44842007412490        1.11186161771403
H           -4.27618329721043        0.35057892740930       -1.84289245942065
H           -6.14798022036546       -0.55438645764066       -2.74695907330265
H           -6.11344843931385       -2.21128872418115       -3.36457197916795
H           -4.61426606069782       -1.25027602283005       -3.33543871996424
H           -5.34826083209487       -3.38329779226616        2.77255056085386
H           -5.21383005091903       -4.90314870013079        1.85267376921630
H           -3.73921794760871       -3.98013428362999        2.18809832666958
H           -3.90987941759986       -1.69110638745319        2.66792892229541
H           -3.07082476358318        0.54335880269316        2.30026881549146
H           -3.47020149046802        2.26053175106422       -2.15745785020822
H           -2.05052146881026        3.17063391527022       -1.63805479023677
H           -2.09603812808799        0.25081059072173       -2.31685435687402
H           -1.73541960583651        1.68419859158881       -3.36947277677583
H           -0.63608219711480        0.06676509008534        2.86515782560687
H            0.44656890200497        1.87542634828161       -2.62954951760469
H            1.82078576226336        0.00773567769846        0.13724925580214
H            1.99741301887888        1.47410452151856       -0.82608829571762
H            2.78241682271603        0.24263731542755       -2.75228474505551
H            2.47273303693366       -1.28814987343582       -1.90712242685206
H            4.53477836225972        1.82134564677672       -1.83362972595427
H            6.69404994877982        1.97989695022798       -0.71740658696937
H            8.24628681863546        2.03815329951501        1.09283173624554
H            8.94136309493549        1.31159699536402       -0.38032425733973
H            9.60424442540426        0.89959330983235        1.21925993439390
H            6.27096459595418       -3.98686430015471        1.89832598098220
H            4.70969217252134       -3.08141792239256        1.70606308816045
H            5.44052651347568       -3.85177168419680        0.30367427395587
H            3.96535047456609       -2.08403638619652       -0.24170158459186
H           -0.58166493171327       -1.54662101292165       -1.72582556250942
H           -1.25983620191098       -0.58216360185815       -0.43601624968761
H            0.25716386671433       -1.47212771616719       -0.15068682114757
H           -3.13645773655089        3.84125471509677       -0.12209138080421
H           -3.68986399667816        2.68197250048121        2.62349612248528
H           -4.95413087129965        2.80605664379179        1.38088217787386
H           -4.13285324311393        4.27129483735909        1.95129753343955
H           -1.10682971083477        2.66740878292888        1.75531395589062
H           -0.85058329595011        3.49008163039904        0.23248035306958
H           -1.50151346809716        4.39124549090658        1.65067415600211
H           -0.68213401030053        2.38888381050726        4.57197105760474
