72
 energy: 39.720350463407 xtb: 6.6.1 (8d0f1dd)
N           -1.98958668186747        2.58317415565502        2.91384294096465
C           -1.76703880166300        1.81966755831389        1.93501661006676
C           -2.62782415053806        1.85103692258860        0.62262390323910
C           -3.43201452915167        0.59052240099858        0.53650688604497
C           -4.16790761352277        0.10609686315780       -0.54774814722648
C           -4.78425473519918       -1.13200403798764       -0.50088224251131
O           -5.60873927925164       -1.66942319644750       -1.44479841848527
C           -6.02607958846083       -0.86790420738555       -2.52299982567611
C           -4.51937904658847       -1.96611587819988        0.58875759554549
O           -5.04485295424157       -3.21921250881104        0.55301875410629
C           -4.67769379867768       -4.04007801070376        1.63089273910691
C           -3.74860318212843       -1.50214367031045        1.62778159170077
C           -3.26273869852269       -0.22449765745617        1.61096108681287
C           -1.98174419861090        2.12113939227107       -0.83591378985345
C           -1.27404577691814        1.23032941980028       -1.88271841435579
C            0.15770953763472        1.13999378715565       -1.46202737723727
N            0.70639398783831       -0.09463848108876       -1.08065335923055
C            2.07887991405579       -0.09989664143915       -0.68207369628310
C            3.08990453403595       -0.57932368093648       -1.74499074037082
C            4.47505809573708       -0.43739345397300       -1.17231235540221
C            5.18800265905975        0.74592673716710       -1.26081780052656
C            6.41373643207899        0.89206963718041       -0.62557731769042
C            6.97748565106996       -0.14565693705034        0.10770447806468
O            8.23633805999341       -0.11121779120551        0.68923094962945
C            9.00808012897751        1.04855064377965        0.47508924534676
C            6.22941726651382       -1.34387871505776        0.23172994886391
O            6.79547010941862       -2.32959348479759        1.00233584729618
C            6.08850670539037       -3.52677408783469        1.19516826426196
C            5.01670650147829       -1.47010181663853       -0.42169118226311
C           -0.10623069814169       -1.24315544735749       -0.78040830428250
C           -3.55718465354451        3.12816169697812        0.73070007199275
C           -4.54729553238289        3.05632026005249        1.87314594374807
C           -2.62982961887454        4.32854164357993        0.82900586513224
H           -4.30918155247733        0.72089540284681       -1.41941214356839
H           -6.54199938631972        0.04296716592627       -2.20426065350567
H           -6.72747675712534       -1.47472851496072       -3.09356450555249
H           -5.18554295752411       -0.58086990652316       -3.15525478348053
H           -5.00160440433576       -3.60611610496034        2.59212289534368
H           -5.18813165297072       -4.98451310930510        1.45941085785617
H           -3.59062993455866       -4.20057920984327        1.63446898622088
H           -3.51326670280913       -2.10616810439028        2.47855549853448
H           -2.71268041022462        0.15172860782214        2.44376475459859
H           -2.84355712876269        2.53165425851990       -1.35208187662837
H           -1.23217100412534        2.89252094217943       -0.73027709160165
H           -1.73097680854305        0.25442823446236       -1.91629286563268
H           -1.37272704173258        1.61627499377077       -2.91867076494189
H           -0.88156633542271        1.26234587951175        1.68454501985947
H            0.89012131962925        1.82602651646791       -1.88551818833276
H            2.21579882826936       -0.72329466399472        0.20287733726987
H            2.34050435192007        0.92439416438028       -0.42382705866829
H            2.97623512468218        0.03535906434271       -2.63983135518159
H            2.86886497744244       -1.61270045063222       -2.01542380404673
H            4.78308277470527        1.57713602805439       -1.81743659904194
H            6.94914673705109        1.82462233648801       -0.68523137922016
H            8.53720414088937        1.92739853709024        0.93059297027907
H            9.13763257291051        1.23785431855917       -0.59490405047899
H            9.99582509901959        0.87396843897910        0.91366452897999
H            6.74743743572557       -4.21813087531972        1.74636804180167
H            5.17717101743222       -3.33206156560016        1.76127026744139
H            5.81705108813220       -3.98589265828426        0.24078954949415
H            4.43231890315624       -2.37141817896685       -0.35876275466479
H           -0.31789794917794       -1.83760924563741       -1.66743311898527
H           -1.04803137173150       -0.94491130845081       -0.31153768272773
H            0.41431297891830       -1.91439878539615       -0.07195136337135
H           -4.14360862115668        3.24922602507744       -0.18758370468984
H           -4.02638807662722        2.88663873342560        2.79182301228252
H           -5.17743374110838        2.15429312300768        1.77774367447338
H           -5.12660417392380        3.97606767747226        1.98283273250031
H           -1.87508860592743        4.07684235771064        1.53879269315018
H           -2.14758489456407        4.51993543755835       -0.12196294586525
H           -3.16246063718452        5.21195210088114        1.16045714965043
H           -1.27618017043296        2.76711788576141        3.58448480877740
