  72
        -99.36467372
 N         -2.1409596593        2.0590065643        2.7723049419
 C         -2.0395298394        2.4927231992        1.6006302389
 C         -3.0272519412        2.1306442910        0.5112066805
 C         -3.5093297837        0.6768861958        0.5380192430
 C         -4.3967717417        0.2807800321       -0.4671471453
 C         -4.8733475202       -1.0168554614       -0.5447465043
 O         -5.7400197292       -1.4757147935       -1.4681928236
 C         -6.3058717372       -0.5784199804       -2.3946667284
 C         -4.4352138071       -1.9794082021        0.4083005613
 O         -4.9415163182       -3.2161560375        0.2569360363
 C         -4.6111424983       -4.2154958378        1.1938440393
 C         -3.5476820445       -1.5776144674        1.3952592221
 C         -3.0903329197       -0.2689400813        1.4593972036
 C         -2.4342305590        2.3356538508       -0.8443301684
 C         -1.3942970972        1.4560391431       -1.4135855060
 C         -0.2659092623        1.0726018263       -0.4389856881
 N          0.5945667471        0.0638850340       -1.0054079068
 C          1.9637452176        0.0499823241       -0.5420483903
 C          2.9320008276       -0.4192296200       -1.6429015527
 C          4.3455929751       -0.3088217070       -1.1518168354
 C          5.0340560025        0.8941524951       -1.2419992723
 C          6.3198927419        1.0178892476       -0.7437527669
 C          6.9519401292       -0.0616071004       -0.1384677822
 O          8.1900584372       -0.0512119631        0.3846621196
 C          8.9415958260        1.1407078153        0.3531257805
 C          6.2590882589       -1.3028783519       -0.0481608768
 O          6.9427480622       -2.3007161777        0.5413937715
 C          6.3519221568       -3.5749036139        0.6483778285
 C          4.9694826964       -1.3985523937       -0.5521099814
 C         -0.0277706803       -1.2333226752       -1.1401390047
 C         -4.2544082274        3.0827715867        0.7182942684
 C         -5.0707112086        2.6753770615        1.9393810969
 C         -3.8238041234        4.5439518966        0.8304519298
 H         -4.7227999238        1.0046762174       -1.1961262983
 H         -6.8435899848        0.2305894684       -1.8912720598
 H         -7.0085506782       -1.1684427653       -2.9799973524
 H         -5.5472979209       -0.1555198547       -3.0610955806
 H         -4.9097552531       -3.9291929047        2.2065999528
 H         -5.1695132575       -5.0982764601        0.8881345029
 H         -3.5400787975       -4.4407931568        1.1783040530
 H         -3.2075069621       -2.2818735258        2.1373180980
 H         -2.4310410873        0.0124892323        2.2633773104
 H         -2.9282073744        3.0130856500       -1.5252062055
 H         -1.2818768872        3.2253643074        1.2933942561
 H         -1.8682566217        0.5198968897       -1.7445560126
 H         -0.9621404471        1.9184373547       -2.3037195830
 H         -0.7142999842        0.7193622223        0.5041970633
 H          0.3353809845        1.9627248938       -0.2322748550
 H          2.0840958636       -0.5938507555        0.3423487761
 H          2.2457783478        1.0648054311       -0.2561176586
 H          2.7866027124        0.2105101569       -2.5205367949
 H          2.7131813526       -1.4497847609       -1.9211516923
 H          4.5666654386        1.7450074798       -1.7132344492
 H          6.8291929406        1.9633936151       -0.8335659861
 H          8.4378849053        1.9446716343        0.8981756691
 H          9.1385933497        1.4625431597       -0.6737946787
 H          9.8836403445        0.9059762260        0.8447404078
 H          7.0918147861       -4.2000131944        1.1444804805
 H          5.4402017211       -3.5446254111        1.2527524609
 H          6.1252152788       -3.9941373503       -0.3366417033
 H          4.4359785137       -2.3339233544       -0.4880938005
 H         -0.5660956570       -1.3004957475       -2.0870355543
 H         -0.7365074121       -1.4257597357       -0.3259977393
 H          0.7246183676       -2.0162157327       -1.1301552211
 H         -4.8853375946        2.9820634554       -0.1700395211
 H         -4.4406488670        2.6369759932        2.8245423735
 H         -5.5198762454        1.6953520229        1.8005194263
 H         -5.8636529360        3.3988849993        2.1069287664
 H         -3.3308254387        4.7320152256        1.7812475124
 H         -3.1475971740        4.8234379587        0.0250689571
 H         -4.6995011090        5.1864821261        0.7756879026
 H         -1.4766880663        2.4092280466        3.4559756800
