  72
        -99.39468868
 N         -1.7505673690        3.1649624802        2.0501913036
 C         -1.7047498364        2.1623062133        1.2955781000
 C         -2.8811141314        1.9662837582        0.3613478744
 C         -3.4352453385        0.5623055398        0.3884492239
 C         -4.3841229034        0.1621731979       -0.5548425806
 C         -4.9143364064       -1.1169694954       -0.5478588404
 O         -5.8411168354       -1.5808771334       -1.4125078497
 C         -6.4166903857       -0.6965594045       -2.3448206634
 C         -4.4757482817       -2.0509315928        0.4297332571
 O         -5.0257126303       -3.2786539555        0.3472103340
 C         -4.6835292528       -4.2480482017        1.3100748858
 C         -3.5475220428       -1.6408132489        1.3734214065
 C         -3.0398561118       -0.3480937648        1.3561700267
 C         -2.4227432252        2.3662034834       -1.0599145492
 C         -1.5026263599        1.3322155839       -1.7341547059
 C         -0.1661795756        1.2549746302       -1.1115119166
 N          0.4240034722        0.1515327679       -0.6808269087
 C          1.8049110271        0.1784326722       -0.2572031909
 C          2.7443653180       -0.2789501676       -1.3901969344
 C          4.1797238033       -0.2014051233       -0.9515369102
 C          4.8984744908        0.9744991481       -1.0956664198
 C          6.2225840321        1.0512065140       -0.6934240475
 C          6.8555318748       -0.0493251876       -0.1330160867
 O          8.1351036478       -0.0940737355        0.2792751941
 C          8.9493035847        1.0455015925        0.1227199297
 C          6.1220769307       -1.2575011502        0.0308946034
 O          6.8119835068       -2.2749606498        0.5824590544
 C          6.1826726198       -3.5218167975        0.7573621109
 C          4.7984796509       -1.3093203232       -0.3774741113
 C         -0.2152696863       -1.1410721611       -0.7551752731
 C         -3.8699130316        3.0426271047        0.9188355330
 C         -5.0687027519        2.4624940877        1.6595168064
 C         -2.9840920066        3.8756204576        1.8824889373
 H         -4.7250474484        0.8704084926       -1.2920170071
 H         -6.9011797169        0.1499723801       -1.8485927487
 H         -7.1672524089       -1.2792491248       -2.8750925484
 H         -5.6759061994       -0.3267322443       -3.0612844583
 H         -4.9445937314       -3.9200162171        2.3205184874
 H         -5.2666007105       -5.1309231667        1.0557654145
 H         -3.6174856200       -4.4942466663        1.2695984352
 H         -3.2168470207       -2.3194425940        2.1427437320
 H         -2.3418833747       -0.0547422902        2.1252223793
 H         -3.2993285157        2.5018878325       -1.6941075225
 H         -1.9072636184        3.3264993730       -0.9988516481
 H         -1.9986465879        0.3635045783       -1.7560744920
 H         -1.3644901413        1.6641181380       -2.7707154398
 H         -0.8385965257        1.5212649705        1.2936879611
 H          0.3910823078        2.1743137793       -1.0127991649
 H          1.9283219620       -0.4782388963        0.6076358877
 H          2.0732144598        1.1932253550        0.0425114374
 H          2.5864684765        0.3691148069       -2.2542033555
 H          2.4976096274       -1.3021772078       -1.6763699534
 H          4.4328996426        1.8412941052       -1.5394069323
 H          6.7584806248        1.9762943986       -0.8280105119
 H          8.5670878688        1.8934673524        0.6989073457
 H          9.0411530466        1.3296265509       -0.9298595074
 H          9.9270025404        0.7602512118        0.5062104606
 H          6.9394786426       -4.1724533702        1.1911655992
 H          5.3325977758       -3.4495091257        1.4433407014
 H          5.8497511190       -3.9409472714       -0.1972506206
 H          4.2375671747       -2.2243084911       -0.2675985351
 H         -0.3371835192       -1.4651850345       -1.7910491029
 H         -1.1977800089       -1.1075727111       -0.2790956505
 H          0.3954604741       -1.8731977612       -0.2330710847
 H         -4.2336439487        3.6721148763        0.1042555387
 H         -4.7444770563        1.8252738823        2.4790089143
 H         -5.6976529203        1.8749495226        0.9957631988
 H         -5.6692732043        3.2728648297        2.0659761509
 H         -0.4911686666        5.2502613524       -0.2633602229
 H         -2.7554886817        4.8705436739        1.4926289110
 H         -3.4460157070        4.0053780204        2.8630510601
 H         -0.2493727221        4.9581480786        0.4213488077
