25
 energy: -42.158996958380 gnorm: 0.009010134016 xtb: 6.6.1 (8d0f1dd)
C            2.73924547225810        1.23911593412455       -0.12398903302913
N            2.12619018830875       -0.06136791833902       -0.12339291525360
C            2.74837656630842       -1.21450225048555       -0.29926232863372
N            1.85238972358883       -2.20916575776672       -0.24117661100245
C            0.60736744439345       -1.68283510324626        0.00630457035806
C            0.77861999786277       -0.29750296816382        0.04698951229009
C           -0.12585103030972        0.81225903576624        0.46068706499125
O            0.23788828852648        1.58183413282994        1.31835655632310
N           -1.36057514029697        0.92397728285761       -0.14266625964968
C           -2.22696578749559        1.98366054679618        0.36202419677898
C           -1.79548028299070        0.17561092443602       -1.22410935770081
O           -2.88674697273417        0.26649976216405       -1.70421706125796
N           -0.48632265721840       -2.46638587920168       -0.01972318816110
C           -1.45816865095015       -2.51391146915818        0.78270723635019
H            2.60154414649907        1.71474773017575        0.84941594729075
H            3.80179566768212        1.14171353108171       -0.33872589392706
H            2.27496520329375        1.87490469955639       -0.87997675572175
H            3.80129697920991       -1.33947779790561       -0.46269995800091
H           -1.67831829356306        2.92646662831964        0.36426658968611
H           -3.09646358421320        2.05040597561883       -0.28990017891750
H           -2.54196077407309        1.76094100568741        1.38089499068758
H           -1.49558273844060       -1.97943080064759        1.73038507223936
H           -2.27994855683983       -3.16503436641586        0.52438824417228
H           -1.02417620505686       -0.50761132658577       -1.61235281785811
H            2.04731251035066       -3.19667300989780       -0.33305600415335
