  25
        -42.14525048
 C          3.8690469154        0.8371503219       -0.0003646448
 N          2.8686546677       -0.1921901768       -0.0249489246
 C          3.0646090106       -1.4947804677       -0.0928992150
 N          1.9038751257       -2.1578291424       -0.0706037433
 C          0.8199031060       -1.2519020661        0.0159854140
 C          1.4871586204        0.0555849309        0.0539081372
 C          0.8907870738        1.2350102681        0.1541042486
 O          0.2750365539        2.2127304951        0.2269138973
 N         -3.0949206190        1.6790036160       -0.3204224909
 C         -3.1886614527        3.0776099861       -0.2325816284
 C         -3.3895357885        0.5803023587        0.0144167675
 O         -3.5404873075       -0.5524973784        0.2053626459
 N         -0.4159997579       -1.4582522694        0.0485773906
 C         -1.0772236451       -2.7188556339        0.0175696964
 H          3.9534904182        1.2644573553        1.0013420509
 H          4.8316940339        0.4210070816       -0.2903203630
 H          3.5992130423        1.6335590593       -0.6947307584
 H          4.0317739233       -1.9581893881       -0.1627083936
 H         -2.1789377596        3.4856809682       -0.1538659240
 H         -3.6547592592        3.4626717254       -1.1419656236
 H         -3.7756130548        3.3895780648        0.6339145647
 H         -0.6430731140       -3.4438508951        0.7123690839
 H         -1.0543201521       -3.1376971375       -0.9919857769
 H         -2.1166003012       -2.5361722529        0.2870476754
 H          1.8037347235       -3.1600374401       -0.1228127714
