25
 energy: 0.000000000000 xtb: 6.6.1 (8d0f1dd)
C            3.33846216920431        1.27013887727508        0.14155966908631
N            2.42516144553752        0.24711623031237        0.05751679622240
C            2.75364620715747       -1.08788608845416        0.06717061742024
N            1.62074971335368       -1.82264404622226        0.02591262470408
C            0.48911133253349       -1.05237902496808        0.02076705381518
C            1.00010590501995        0.29981811933886        0.04902007791375
C            0.12423773352709        1.33983342121456       -0.01191138447273
O            0.44940820557434        2.56283086258537        0.00708101744011
N           -1.42565897314511        0.89515030127492       -0.08916866567197
C           -2.13573541081156        2.15025325426772       -0.16287263537610
C           -1.92897248735256       -0.45550005167834       -0.00871816347772
O           -3.12478314130636       -1.28830425120699        0.14440199850116
N           -0.78860912026928       -1.36358682493925        0.02242978166266
C           -1.76885906865221       -2.72243736679481       -0.02915396829479
H            3.89653395534931        1.25710883578395        1.09499177739028
H            4.08612215498973        1.21906372004733       -0.67404047005064
H            2.81060253709772        2.22443122427143        0.07658092691306
H            3.75105509124573       -1.58150324640612        0.10914960344606
H           -1.44672601998930        2.98997547118770       -0.19350505837645
H           -2.76740345104895        2.14469416250603       -1.03860585299886
H           -2.75411660724979        2.25205813704726        0.76980569476005
H           -0.93605185971211       -3.41995281410421        0.13673618742878
H           -2.09799299664940       -2.88729694778533       -1.02388082711064
H           -3.56361468754741       -3.21474722258987        0.52807608662324
H            1.57882217157869       -2.86427485245447       -0.01609748955577
