25
 energy: 0.000000000000 xtb: 6.6.1 (8d0f1dd)
C            3.30933356857314        1.24106926922116        0.12446847361853
N            2.38238856017642        0.21983413014214        0.05065383905751
C            2.76589307694511       -1.17224729158017        0.05977959981619
N            1.56354018717873       -1.84417081148376        0.01149119279894
C            0.46987536117140       -1.08489326829178        0.01235555847056
C            1.03451842351245        0.25398204114694        0.03643491321381
C            0.21104271658558        1.38100867858514       -0.01247986191412
O            0.41175702127028        2.51440804093345        0.00006220337256
N           -1.36682326931635        0.92361208479904       -0.06877308760268
C           -2.15995553559571        2.13726879165993       -0.13240044239837
C           -1.97467865862297       -0.37519997594844       -0.02652529966608
O           -3.05981275923905       -1.14314623276637        0.02849202334253
N           -0.87317864586642       -1.38778334992368        0.03061687351681
C           -1.77976017997927       -2.66698291400739        0.02842856456793
H            3.84297177291548        1.24774853175218        1.08914929329539
H            4.06665248817115        1.16508956147397       -0.67303875148295
H            2.77773035796173        2.18932087751382        0.02842657724928
H            3.70368980502501       -1.61436510989716        0.09148216830494
H           -1.50972093579901        3.01435373213215       -0.14087562565715
H           -2.78324244789591        2.12205648780509       -1.02006484928980
H           -2.79009277181949        2.20279765864643        0.78236312574588
H           -0.96621426001661       -3.38345735508513        0.35643990216595
H           -1.82943694867285       -2.98219319214805       -1.04289618257469
H           -3.27107847644938       -2.94789617539672        0.46225481057399
H            1.51779434253661       -2.87704674514849       -0.01450155522648
