25
 energy: 0.000000000000 xtb: 6.6.1 (8d0f1dd)
C            3.35364225839230        1.28484416414101        0.14940129314807
N            2.44010837356903        0.22226296042748        0.07436374928951
C            2.73703148189492       -1.04778666509699        0.07168739111721
N            1.65178050037700       -1.81976186455090        0.02996190387801
C            0.49108268702808       -1.02957730390542        0.01188994368083
C            0.99663138328018        0.32151073645440        0.04381981702426
C            0.08655360171612        1.34844704600823       -0.00795138341709
O            0.47137536473680        2.58426067870348        0.00768520919407
N           -1.39768238169312        0.87971838892463       -0.09007809312149
C           -2.12283785269015        2.14977963495036       -0.17942919802737
C           -1.90319696727588       -0.47445732106937        0.01403666705392
O           -3.16854232992318       -1.44500398276094        0.13996343739652
N           -0.76154734019888       -1.35451003446780       -0.00524041674621
C           -1.70104728112728       -2.70266017052674       -0.06057973386798
H            3.92365571219470        1.26101569690742        1.09551185380146
H            4.09531303756122        1.24623053089210       -0.67557987045647
H            2.82811096564422        2.24160365692944        0.10021241357202
H            3.76532186924143       -1.55671415155720        0.11602786482866
H           -1.41914617271045        2.97534408546748       -0.22275221377951
H           -2.76580543227809        2.15406171781830       -1.05168480555698
H           -2.73359351870599        2.27427703914027        0.76249375236038
H           -0.93761220199855       -3.43306768693395        0.02558927363069
H           -2.21746606926291       -2.82354414257213       -0.98182207685959
H           -3.71628619815660       -3.35360349258904        0.56141573015909
H            1.60905013268243       -2.85664147224590       -0.01452583488866
