25
 energy: 0.000000000000 xtb: 6.6.1 (8d0f1dd)
C            3.45405418428516        1.31087420566741        0.16021469206935
N            2.51486227639615        0.19938572328676        0.08074405543291
C            2.78688097823634       -1.09070767768482        0.07959182649134
N            1.64310502350211       -1.84207482051259        0.00770702632131
C            0.57869956100981       -0.94996426691874       -0.03374746351109
C            1.10741567468020        0.34983053144164        0.00760348278824
C            0.35843496915446        1.44551418755686       -0.01586472894449
O            0.61072903202122        2.68707639614277        0.03054441211076
N           -1.20488727998179        1.04906553392920       -0.09602840519601
C           -2.03140590340653        2.24236792854766       -0.13778652087030
C           -1.70085199298796       -0.11851604202216       -0.10101251295818
O           -3.95487509438371       -2.83598518490612        0.06701616346482
N           -0.76046195792557       -1.12153014724184       -0.09324210789374
C           -1.21582073778557       -2.52401395964436       -0.18828879621298
H            4.00998726584830        1.26251863289481        1.10372914039619
H            4.14875288887499        1.25251676017424       -0.66854473051861
H            2.89650761154832        2.24316937248643        0.11064603269797
H            3.80062640038300       -1.51022946623088        0.11687174393929
H           -1.44718434071015        3.16042997188817       -0.22662657045650
H           -2.67698427177300        2.15575153148318       -1.02157312723687
H           -2.65907921840462        2.27139333007778        0.76443022978901
H           -0.48270515949217       -3.33233492801675       -0.00080908816110
H           -2.22811759050672       -2.58411026799342       -0.03670931288278
H           -5.22452374046878       -3.06335217179048       -0.03679764835770
H            1.58150471378833       -2.79023882485418       -0.01681787269840
