25
 energy: 0.000000000000 xtb: 6.6.1 (8d0f1dd)
C            3.38882805601865        1.30701521607715        0.16390497872376
N            2.44121817545533        0.24847119837308        0.10587294992895
C            2.77724310658901       -1.01728930949079        0.09074261675706
N            1.66481679633391       -1.86629883489760        0.03478541496321
C            0.49967520417646       -0.98937622939574       -0.00905491049840
C            1.05989386855074        0.33011748772885        0.02787259437335
C            0.11999850755580        1.42627280541679       -0.00384808845841
O            0.52185872601163        2.61453276004932        0.00061600316488
N           -1.32314493626747        0.88772102123155       -0.09130762472751
C           -2.10025836259482        2.14183024106512       -0.21476760780748
C           -1.93928692991859       -0.40234935248879       -0.03667860287939
O           -3.27908763829475       -1.75054379138456        0.11896788602755
N           -0.80347043781695       -1.36681482346634       -0.06755765814330
C           -1.56026001771093       -2.66094994541308       -0.10683324190415
H            3.97800894572456        1.26753304793190        1.09474328058535
H            4.11452306122877        1.30089384398786       -0.67590273990112
H            2.86856553161234        2.27303667615395        0.14502829670538
H            3.77163075789050       -1.49702309148041        0.12290019672404
H           -1.38677281202929        2.95280932542541       -0.29796568402634
H           -2.76327380378183        2.13580152569234       -1.07445234944358
H           -2.69562626934924        2.32121898630870        0.74748707594626
H           -0.97407056644366       -3.40621726809531       -0.19189136863345
H           -2.43190499071078       -2.66914619153776       -0.86118446606073
H           -4.08683511753989       -3.45112239775104        0.48602515732814
H            1.66852824913238       -2.83951502136262       -0.00679953028142
