25
 energy: 0.000000000000 xtb: 6.6.1 (8d0f1dd)
C            3.28040770526516        1.21181656031740        0.10723832877147
N            2.34946924517440        0.16161320240012        0.04525356631994
C            2.70700070039091       -1.21533892458339        0.04579872099702
N            1.51446388525512       -1.88133267279362        0.00127753856882
C            0.46203771111837       -1.06062574507517       -0.02720669406537
C            0.98206243584560        0.25890418292671        0.01020854467973
C            0.14527204385596        1.33594202674743       -0.01259652610794
O            0.42860315501430        2.56029270234099       -0.00868174549558
N           -1.31660295243969        0.97621365101610       -0.05166898052623
C           -2.18430411097011        2.13634887616127       -0.09847345647540
C           -1.88826798286074       -0.33044485446903       -0.02859142054836
O           -3.08805788531107       -0.85139256543539        0.01085860561725
N           -0.95666846835273       -1.38965800061876        0.02056020539455
C           -1.69251692624996       -2.59288090499408       -0.03740225743569
H            3.78998959910544        1.23659479187445        1.08058941927484
H            4.04544857510528        1.11175722995882       -0.67331860459358
H            2.74637696512256        2.15361175640433       -0.02028228355770
H            3.65070998153546       -1.63350665828714        0.07059155075486
H           -1.57308842668382        3.04362684924898       -0.09150909789263
H           -2.79867039870684        2.10791220571483       -0.99411655856339
H           -2.82359172139976        2.15209405816110        0.79590941581103
H           -1.01905719613222       -3.31739896949991        0.55914001027858
H           -1.55531479604917       -3.05847231782225       -1.01030521100094
H           -3.01426296098413       -2.69006426759512        0.28855056331513
H            1.45784635521921       -2.89383700180421       -0.01387239716692
