25
 energy: 0.000000000000 xtb: 6.6.1 (8d0f1dd)
C            3.40750720670717        1.31636050944054        0.17204982448473
N            2.44221077502994        0.27680144438195        0.09312645624300
C            2.79300010620631       -1.05705705103053        0.09030180173879
N            1.64609579593399       -1.86293213385401        0.02983481748457
C            0.52625649597902       -0.98571897034741       -0.01118274746725
C            1.09028879268475        0.32479912861824        0.02082295973172
C            0.15297272625499        1.45725982985417       -0.00333947387182
O            0.54042324732921        2.59436641830522       -0.00099130349419
N           -1.29028942073239        0.90369672737308       -0.08842767286758
C           -2.10245541371556        2.15795078905997       -0.21283805936305
C           -1.93594101988499       -0.36203213483276       -0.06832789857877
O           -3.33519523179425       -1.90398147233599        0.11690877646883
N           -0.80987098812559       -1.33118722084152       -0.08821736223026
C           -1.49031633045861       -2.63437465447678       -0.12431007208969
H            4.00490215488294        1.27005369430029        1.08857232163166
H            4.11416026801642        1.32945414733683       -0.67703267145843
H            2.88881871252017        2.28575104339225        0.16903785487144
H            3.77249755558177       -1.46698962093100        0.12514808106490
H           -1.38896196888182        2.95503360480506       -0.33718767736139
H           -2.75684519744966        2.12243197541567       -1.07421247556352
H           -2.67750058600560        2.34547279318352        0.73954680630840
H           -0.95331290561481       -3.41180447252211       -0.31594901506357
H           -2.49336970768204       -2.60458772410216       -0.75184254703021
H           -4.27890140101172       -3.45757127287775        0.42074270145411
H            1.69676096410278       -2.82839056223518        0.00151014293110
