25
 energy: 0.000000000000 xtb: 6.6.1 (8d0f1dd)
C            3.41497248049546        1.31756324587397        0.16834316445616
N            2.47009528713412        0.17578460127468        0.08287989067302
C            2.73278006367906       -1.13662974137830        0.07816226940068
N            1.62906297832298       -1.76618316526957        0.01573708928169
C            0.59934125392363       -0.96973899785631       -0.01860502896360
C            1.17099245292786        0.27599349684738        0.01158255455473
C            0.26328261952315        1.53500198783241       -0.00516210351089
O            0.56559623149859        2.59172568857693        0.01289718518135
N           -1.24915000078122        1.00353513232320       -0.08680876042542
C           -2.06814589059307        2.20056119700214       -0.18173112736380
C           -1.84950048859918       -0.24784197746123       -0.09857186438395
O           -3.55227644971485       -2.33761393200788        0.07847412549832
N           -0.84019901862760       -1.20746617927337       -0.09910402863960
C           -1.27457549041945       -2.56173151444943       -0.16202785549261
H            4.04977698886089        1.22774540464307        1.05837594472850
H            4.07107425650363        1.32460860531846       -0.69309508641920
H            2.90148587943380        2.27827323384733        0.23124851127474
H            3.75206004640829       -1.41118940714295        0.14165680299507
H           -1.40947377026969        3.04503142592445       -0.33573040965762
H           -2.71748315037796        2.11663242854322       -1.04496658842803
H           -2.63434116331807        2.36622335621603        0.70403440853908
H           -0.67491145404790       -3.41089575620106       -0.28860275535867
H           -2.55769629995654       -2.54530456988388       -0.44899557424430
H           -4.83710443987546       -3.37310106460698        0.19966395606712
H            1.67012198922156       -2.84711189227385        0.01209818949730
