25
 energy: 0.000000000000 xtb: 6.6.1 (8d0f1dd)
C            3.36986786153673        1.29786625771655        0.15691409884269
N            2.45104141439513        0.21736315724251        0.09768548715230
C            2.74158891154131       -1.00464068823119        0.08408798725569
N            1.67385892307920       -1.83270576603530        0.03728384338831
C            0.49259852768357       -1.00620318823610       -0.00003390332735
C            1.02931148474356        0.32853794752553        0.03489393199785
C            0.09332680501775        1.39106449771927       -0.00503559339425
O            0.49491588615634        2.60648317307737        0.00562758112443
N           -1.35951611708528        0.88140607255128       -0.09075160445518
C           -2.11026119799163        2.14263950114851       -0.19495998464541
C           -1.92490613199265       -0.43597334320394       -0.00370223379209
O           -3.22008223586359       -1.59892587824669        0.12946449758687
N           -0.78169685026491       -1.36208694536508       -0.03790262802223
C           -1.63077103595956       -2.68297203422367       -0.08580684013981
H            3.95086929178875        1.26445310010153        1.09579941942232
H            4.10505953505595        1.27348810451609       -0.67587396117346
H            2.84721845698024        2.25777248521354        0.12310569055479
H            3.76981189407998       -1.52724688518344        0.12005062842923
H           -1.39939759677635        2.96090673753496       -0.25748079552556
H           -2.76754993493308        2.14332830364449       -1.06088688662977
H           -2.71307593531985        2.29639629758339        0.75481267065474
H           -0.94770177715426       -3.43683483643639       -0.08502247005665
H           -2.32376870946709       -2.74552078468117       -0.92261154209350
H           -3.89227662508452       -3.42671144216999        0.55038049512758
H            1.63899411465253       -2.84846551462053       -0.01196789923981
