25
 energy: 0.000000000000 xtb: 6.6.1 (8d0f1dd)
C            3.45541804920064        1.28883469606293        0.16332215938980
N            2.52499104829674        0.23123570632994        0.07985798807736
C            2.80566603446154       -1.13362583189886        0.07669638849915
N            1.63978368424013       -1.81591599665476        0.00744257130785
C            0.57627751077306       -0.95998503972326       -0.02820700224853
C            1.11226355028733        0.37401462891468        0.01128821920883
C            0.37744571870326        1.48149717804281       -0.01101009436483
O            0.64083239659168        2.69449129455566        0.02715804828383
N           -1.20021511597585        1.08767771130206       -0.09973839143017
C           -2.02367576206602        2.25272017873267       -0.14292531349725
C           -1.67731443519769       -0.07460407579879       -0.11424408029945
O           -4.04368745324651       -2.97487886232914        0.06724480442957
N           -0.76721852902494       -1.16172090090711       -0.09625740645161
C           -1.24907998929104       -2.45530389870710       -0.17206414840749
H            4.00482486454354        1.24999145077139        1.09916709612536
H            4.15204163530346        1.24165217596282       -0.67363601730375
H            2.88988644677434        2.23499597265111        0.11003696033976
H            3.77864036979204       -1.51999775355367        0.11443789124233
H           -1.44726331777468        3.16637872634866       -0.20927213408092
H           -2.66623680950023        2.15546356844772       -1.00945094602307
H           -2.63492772310255        2.26925795544649        0.75703931671041
H           -0.58720623352881       -3.28633065539753        0.00980056182837
H           -2.30640282848880       -2.53416603926726       -0.10379647570928
H           -5.02884093851034       -3.00119241509675       -0.01788110010600
H            1.58621213171198       -2.82146098549053       -0.01797498332575
