25
 energy: -42.137958610512 gnorm: 0.003928299901 xtb: 6.6.1 (8d0f1dd)
C            3.36803149075582        1.04870935466558        0.06361759134348
N            2.37906929800146        0.00699767523001        0.03014348012836
C            2.60462911420539       -1.31035405799194       -0.00358610453046
N            1.42118717509730       -1.97795777610406       -0.01194502977836
C            0.41727502514175       -1.05595612395800        0.01618795830226
C            1.01360959409973        0.20188506109525        0.04534683315458
C            0.25538881977957        1.40984838354075        0.06038275063824
O            0.66751779640277        2.55213085901235        0.09968171391266
N           -1.16406110956802        1.14355580873730        0.01583931569414
C           -1.98529187965105        2.20610470431351       -0.00988018182401
C           -1.77049202547626       -0.14008603892072       -0.00069166926743
O           -2.96770539336317       -0.26541541572554       -0.02220236377575
N           -0.92066336800569       -1.24505091680945        0.00930408401599
C           -1.49942871280374       -2.57440244964600        0.00280883003311
H            3.84431447696638        1.09160960512462        1.04509374458124
H            4.13356891474691        0.86779620552811       -0.69013779011048
H            2.87922629923691        2.00380837016026       -0.12745687535729
H            3.56914608610056       -1.77348448124531       -0.02413562761459
H           -1.53511534001724        3.18204637728462        0.00882774638508
H           -4.82385545831991        2.07623928216661       -0.35724113426080
H           -3.06618598592345        2.05725285081119       -0.08371222614084
H           -1.19516256396750       -3.12496936140462        0.89352764003862
H           -1.19998382592849       -3.11656586460463       -0.89503597957497
H           -2.58291794660508       -2.46434528087302        0.00559480759489
H            1.31833103319488       -2.98115822878674       -0.03915989568787
