72
 energy: -99.338861180813 gnorm: 0.009417928051 xtb: 6.6.1 (8d0f1dd)
N           -1.91150160850538        2.86860483475789        2.27225710487694
C           -1.83916306957414        2.15713631150479        1.24786954330850
C           -2.96370831362319        1.93680403252279        0.27488872463500
C           -3.42588674703301        0.48907769920517        0.35101779831766
C           -4.33570100187094        0.00276759131648       -0.59031863401138
C           -4.80297874274294       -1.29936835707624       -0.54028510387770
O           -5.69167559431949       -1.84236300114000       -1.40020189072773
C           -6.29815456638458       -1.02244081917078       -2.37081789143673
C           -4.33844694129993       -2.17062375269927        0.48050170553427
O           -4.84054648792415       -3.42313431671707        0.44835839482403
C           -4.49871630632200       -4.32206382583229        1.47680648269219
C           -3.43501623678526       -1.68312595088573        1.41027060780242
C           -2.98829960281033       -0.36857484818656        1.34722929074949
C           -2.37285979091638        2.22761932357228       -1.12953845737727
C           -1.41758011055586        1.14101117552145       -1.65392864605124
C           -0.10085246120639        1.12530138816320       -0.97703364221656
N            0.55233834512689        0.03028358224068       -0.58886627779131
C            1.94369971227247        0.10760212898723       -0.21275812735974
C            2.86438352742667       -0.28111246296718       -1.38513064065877
C            4.30647690239596       -0.09878936157430       -0.99555878269261
C            4.93191611900150        1.07420350654152       -1.22485174333483
C            6.34569965370538        1.32478647585303       -0.83259873281462
C            6.93730292855201        0.21348054852464       -0.02252603451279
O            8.10489421822804        0.35651543587861        0.58413990271632
C            8.88943873343800        1.39247595736148        0.49429911935219
C            6.26518933207440       -1.02405338505460        0.13145996933298
O            6.97388425966458       -1.98055288619386        0.77083050699889
C            6.39458475940820       -3.25232396723391        0.95840504578495
C            4.97856903249438       -1.17304206003758       -0.34877863115944
C           -0.04814614274474       -1.28001741272151       -0.65138347266661
C           -4.19324790160697        2.85640789777620        0.53469143339990
C           -4.86071981812772        2.53130137412173        1.86897689514629
C           -3.85498937897565        4.34351036989075        0.47596046867419
H           -4.69543020510481        0.65905508523587       -1.36516522864792
H           -6.82506721603665       -0.18034386575581       -1.91192798125721
H           -7.01618450012432       -1.65968775681286       -2.88328308651399
H           -5.56829287326996       -0.64751324117889       -3.09593798384476
H           -4.79206030163623       -3.93856041337847        2.45857812214064
H           -5.05451771113791       -5.23329512139430        1.26480511982302
H           -3.42659891863607       -4.54428398927854        1.47672060305356
H           -3.07853858431632       -2.31603595227957        2.20673865997725
H           -2.31065313191831       -0.01665526478101        2.10968714531534
H           -3.19277714454940        2.32707921170758       -1.84005104645182
H           -1.84525039059446        3.18170830854301       -1.09941776252637
H           -1.90684547873255        0.17004791830870       -1.60175203678407
H           -1.23658433364683        1.36648608872068       -2.71353763018314
H           -0.91417887785305        1.64355456127683        0.91797918884860
H            0.45262090278362        2.05185804295741       -0.94052651189122
H            2.12624572230785       -0.55674701852880        0.63582463738448
H            2.17768698487189        1.12838705533436        0.09715818219311
H            2.62839509136267        0.35777744309678       -2.23747906345285
H            2.67845559297286       -1.31765958902474       -1.66723497000212
H            4.42734621922589        1.88585147421647       -1.72610898878984
H            6.94897634308939        1.49366405156781       -1.74023562848430
H            6.39554743949609        2.26769723646292       -0.26007502712102
H            8.68970194278486        2.22350156929321       -0.16967675073898
H            9.75258496756881        1.38243740387731        1.14474264641599
H            7.14947143715947       -3.84478195557688        1.47144669180343
H            5.49590674996601       -3.19485552683329        1.57991576000868
H            6.15134448638332       -3.72682242773535        0.00304683891393
H            4.45986598828189       -2.11004129540669       -0.23934733155643
H           -0.19442475595181       -1.60189904433998       -1.68509030777281
H           -1.01556521595533       -1.27958594600190       -0.14350711019597
H            0.60275636970679       -1.99519075019630       -0.15473916711995
H           -4.91432427864319        2.64308124803191       -0.26262234433388
H           -4.18117760402044        2.74739600402048        2.68682518471217
H           -5.15136067386402        1.48473757971869        1.91803475109773
H           -5.75284414413178        3.14046295374065        1.98819154112306
H           -3.11936910389511        4.59334903690566        1.23409664199509
H           -3.47853512285648        4.63616172153503       -0.50070928022473
H           -4.75450096629817        4.92111853409801        0.67219856233778
H           -1.07549580824355        2.96538292610162        2.84031351789731
