72
 energy: -99.619440852964 xtb: 6.6.1 (8d0f1dd)
N           -1.45497617487307        1.99566758661599        2.35875121196741
C           -1.41652659269829        2.16414422052809        1.08859141884553
C           -2.41136142927505        1.79101619130808        0.14381242509096
C           -3.12623449111355        0.55655393217329        0.30538538603468
C           -4.04477793617324        0.11968794642262       -0.67252319888774
C           -4.73996504410274       -1.05791456732784       -0.53445044141696
O           -5.67229502610531       -1.54012091151509       -1.40934429569335
C           -6.02707786971973       -0.73603229038709       -2.49896924816095
C           -4.52276833772823       -1.87594434215292        0.59040241939122
O           -5.26687536974758       -3.02041805044643        0.61354999655729
C           -5.11786201000222       -3.87445048016479        1.71321090422751
C           -3.60895095652423       -1.46427023241101        1.54100567971377
C           -2.95428540180906       -0.25274834224904        1.42590954986221
C           -2.08968741506468        2.24595468497758       -1.22871576494024
C           -1.16985312874741        1.24943189387865       -2.02132033362232
C            0.20088883812994        1.18163277099985       -1.50920479668181
N            0.73782705561782        0.08920396083552       -0.88959331820530
C            2.09914260837170        0.10527131327333       -0.40648677165688
C            3.06182564458652       -0.60973105568998       -1.37182619434281
C            4.47596029156607       -0.49313308327751       -0.89192266104827
C            5.19586133697480        0.66836701293003       -1.09642196606428
C            6.49357063712282        0.79369069617383       -0.61778527181579
C            7.09447373660283       -0.24393720595897        0.07399496490339
O            8.36416560212793       -0.23710068984454        0.56771447292819
C            9.15120589570011        0.90770687867614        0.35479917104221
C            6.36230675789126       -1.43332684011418        0.29824061121004
O            7.03313247794506       -2.40523974602240        0.97617512403909
C            6.39349738905801       -3.63826455367664        1.18755685453799
C            5.06660739433214       -1.53462711313987       -0.17675085446839
C            0.00830944646717       -1.14143931996103       -0.71788085973016
C           -4.60828830821672        3.32697929458179        0.97767389149512
C           -4.76718313788229        2.47565886686433        2.15617876973443
C           -3.75582414304685        4.53746077235961        0.88154552852120
H           -4.23910027645049        0.74304100300354       -1.52881746647350
H           -6.38619541407205        0.24589603178733       -2.17317662833960
H           -6.82056596685547       -1.27155070604087       -3.01435630972320
H           -5.18822130382542       -0.60299058359677       -3.18513652652353
H           -5.38200746398434       -3.37849752124824        2.65381083449548
H           -5.80057811172793       -4.70275930072544        1.53278122004814
H           -4.09434670764533       -4.25049952173339        1.78133845628194
H           -3.40637669312756       -2.07102225294264        2.40698113300683
H           -2.25465468835014        0.04464891905469        2.18857246244945
H           -2.98145004522791        2.35625159271620       -1.83707586923758
H           -1.55002664979776        3.19367639824690       -1.21505919561796
H           -1.63681608650654        0.26844340909274       -2.02591842480762
H           -1.18128296446278        1.63029947593882       -3.04611644181838
H           -0.55702694206256        2.59552402147190        0.56384792542886
H            0.84918994423658        2.03407753291207       -1.58364979942297
H            2.17318416183056       -0.36894704607344        0.57826456950617
H            2.39948321044993        1.14106691706121       -0.27990993923339
H            2.94762503351020       -0.13291588881208       -2.34552042577737
H            2.77116391308207       -1.65802127408823       -1.46251222958108
H            4.75193352877719        1.48607189572910       -1.64332149639262
H            7.03277710388970        1.70984668017524       -0.80140862986868
H            8.71059701140092        1.79286802499937        0.82549006366790
H            9.30021700275571        1.10092730740739       -0.71269939471514
H           10.11219786035939        0.69328500804379        0.82231271578503
H            7.12162771744922       -4.25810628411422        1.71054188569568
H            5.50198053184133       -3.52811441956801        1.81345309067293
H            6.11562738958717       -4.11590701931906        0.24147656872399
H            4.49651975236154       -2.43525864595565       -0.00861218161673
H           -0.19390745008739       -1.60462688860912       -1.68768142989579
H           -0.94102572661378       -0.98788182958560       -0.19232988668111
H            0.59899349042448       -1.82551549211400       -0.10899959980736
H           -5.54653168793143        3.45783090536273        0.47083105798014
H           -3.85135960623028        2.23591648589572        2.68006131958497
H           -5.26537177309218        1.56184741794410        1.84931940461788
H           -5.45422183254701        3.00146875574746        2.82717612715341
H           -2.81177702589422        4.36160610693999        1.35933550128542
H           -3.60664021665169        4.84643565593805       -0.16231445714112
H           -4.28200717397166        5.34131365362862        1.40825257695523
H           -0.58318798972915        2.28811174986692        2.80241303171019
