  25
        -42.18266686
 C          2.9229388843        1.3105054129       -0.0050872050
 N          2.1181004441        0.2603752085       -0.0001749732
 C          2.4756287185       -1.0602382069        0.0008576580
 N          1.3423727007       -1.8371204218       -0.0010920791
 C          0.2695754280       -1.0485062623       -0.0016233869
 C          0.7142131476        0.2974793336       -0.0001771696
 C         -0.2108946458        1.3037651814       -0.0009525981
 O          2.3833300374        2.5466508396       -0.0029220313
 N         -1.5286991133        0.9610947539       -0.0099853136
 C         -2.5303516605        2.0113661136        0.0121001664
 C         -2.0130221109       -0.3508993107       -0.0004824258
 O         -3.1862228889       -0.5991334361        0.0033745284
 N         -1.0518687095       -1.3647943183       -0.0017530464
 C         -1.4783526785       -2.7490375357        0.0035678073
 H          3.0461178714        3.2407851139        0.0109121257
 H          3.9882555478        1.1495188083       -0.0065173591
 H          0.0304426924        2.3526347780        0.0043369872
 H          3.4770817026       -1.4221978530       -0.0015273391
 H         -2.1986765332        2.8535120435       -0.5915030480
 H         -3.4619862665        1.6133954753       -0.3888084243
 H         -2.7105221524        2.3446638596        1.0366987155
 H         -1.1128933540       -3.2546624498        0.8981446435
 H         -1.1157575210       -3.2602499587       -0.8890961110
 H         -2.5670258250       -2.7618887585        0.0054409297
 H          1.3578324202       -2.8453598786       -0.0022819786
