25
 energy: -42.437650863728 xtb: 6.6.1 (8d0f1dd)
C            3.14366915777537        1.19370603107112       -0.00034899471848
N            2.25251601091994        0.07213788291227       -0.01312064046426
C            2.57918948924936       -1.24321104005381        0.01845043424375
N            1.43762948229180       -1.98364630083576        0.02636577841799
C            0.37354510393812       -1.14038376273662        0.00863275021431
C            0.86289632323613        0.16339160112039       -0.00689926218892
C            0.03229150569082        1.29684547416683       -0.02124198214243
O            0.38962409133200        2.47175236013587       -0.08616363260809
N           -1.35753685250706        0.95746384333437        0.01419065330706
C           -2.17726379692786        2.03142077833890       -0.11454543624311
C           -1.87207675998346       -0.34384754575820       -0.01250136858645
O           -3.06175660950456       -0.58097276653109       -0.07084766230763
N           -0.95212052341422       -1.40984968357945       -0.00422864018013
C           -1.41007870463708       -2.78350037776527       -0.01125283205795
H            3.60837652313989        1.31314219155402        0.98187988731584
H            3.92227437717319        1.06216734434395       -0.75395773133413
H            2.55416032325465        2.08717209421083       -0.21242555296849
H            3.57370477611990       -1.63568393053117        0.03409526506398
H           -1.78081265361039        4.41680945599969        0.44037746684412
H           -1.70042662065349        2.94304883539178       -0.45099144083550
H           -3.22373137290484        1.89847890399855       -0.04910829230154
H           -1.09777137476764       -3.29111640720052        0.90478477137180
H           -1.00587015092990       -3.31511808162066       -0.87534415422518
H           -2.49494706249043       -2.79847866268300       -0.07516552909939
H            1.40700686108094       -2.99084064848820        0.03934185880888
