  25
        -42.08098342
 C          3.2202769748        1.1215400105        0.0126870259
 N          2.2653848085        0.0453690655       -0.0024525114
 C          2.5295492588       -1.2530396148       -0.0057070018
 N          1.3783945832       -1.9565662777       -0.0082708522
 C          0.3418349347       -1.0710905108       -0.0062298059
 C          0.8966964449        0.2023908421        0.0001524546
 C          0.0942924266        1.3924316814       -0.0117715086
 O          0.4834831531        2.5393766650       -0.0342648818
 N         -1.3014394760        1.0778957747        0.0023825242
 C         -2.1605153495        2.1082945169       -0.0007287694
 C         -1.8723083426       -0.2347976915        0.0001944806
 O         -3.0601448555       -0.3950342240        0.0107583124
 N         -0.9846038983       -1.3074239121       -0.0137198348
 C         -1.5155628716       -2.6592788961       -0.0155511827
 H          3.6947493555        1.1928658312        0.9923808076
 H          3.9903295217        0.9544396994       -0.7392390256
 H          2.6985057619        2.0556038215       -0.1922744563
 H          3.5103067036       -1.6869489721       -0.0081140990
 H         -1.4870479516        4.8098622288        0.9015284572
 H         -1.7660571574        3.1156876692        0.0888183519
 H         -3.2110328911        1.8963338295        0.0180168984
 H         -1.1993153163       -3.1917769486        0.8812543933
 H         -1.1895287888       -3.1933861239       -0.9077141262
 H         -2.6016561197       -2.5881762541       -0.0208797128
 H          1.3109822752       -2.9645579735       -0.0128957343
