25
 energy: 0.000000000000 xtb: 6.6.1 (8d0f1dd)
C            3.23720163006194        1.16630919979326        0.08434469647475
N            2.29877817382611        0.07527477071623        0.03981603040599
C            2.58028210190900       -1.21425402444508        0.03006176031096
N            1.43813958087363       -1.93419271955128        0.00098261760884
C            0.39035688448383       -1.05887472636071       -0.00790371836672
C            0.93510056364412        0.21347819449412        0.01709077491437
C            0.09450143893243        1.40504303904423       -0.00410947031874
O            0.49712751527797        2.54126714362870       -0.00342325688240
N           -1.25076640035757        1.06271879480407       -0.03085478223738
C           -2.21907211982101        2.15522099834493       -0.05001256985998
C           -1.81739487048744       -0.20012725993278       -0.04692818574614
O           -2.99983886758376       -0.37846417018721       -0.07008878229737
N           -0.92618586207120       -1.30210215599479       -0.03682761578324
C           -1.46982264913417       -2.64643102187190       -0.06029820460571
H            3.71247264356769        1.21471455160235        1.06488849150277
H            4.00791497605742        1.03430808813993       -0.67357694370751
H            2.69910007168542        2.09770118228144       -0.09130154882931
H            3.56654120610678       -1.63682992603973        0.04233140067262
H           -1.67107961066214        3.09322851271934       -0.02552706933167
H           -2.82428953597071        2.09428624779827       -0.95318082946668
H           -2.87644029173232        2.07745725625962        0.81450067533302
H           -1.17061996399332       -3.19584890659852        0.83242232437030
H           -1.14560257411436       -3.17511610292205       -0.95688275822323
H           -2.55549792440841       -2.55659984320617       -0.07459039797972
H            1.38130855184625       -2.94313852034425       -0.01389874181052
25
 energy: -2.053800797230 xtb: 6.6.1 (8d0f1dd)
C            3.24843885723434        1.17878448255336        0.08107696697271
N            2.30508943014819        0.09977943423958        0.03699187356766
C            2.60195743881495       -1.22394773472981        0.03426638066231
N            1.43061305187693       -1.93599601702511        0.00946016502002
C            0.38049939067312       -1.05931162224444       -0.00612999732747
C            0.92305826598710        0.21617093655154        0.01407073771273
C            0.09162688103738        1.38136965539296       -0.00708145178993
O            0.50715189819369        2.54310622267410       -0.00922689109577
N           -1.28527539854871        1.03792706478182       -0.03893357745854
C           -2.19928150762332        2.17291808550595       -0.03206991029657
C           -1.91354615131273       -0.21644993972285       -0.10340624600585
O           -3.12409518842644       -0.36794561838563       -0.13027002244246
N           -0.96626199812345       -1.30595404463764       -0.04373415521996
C           -1.45420367272657       -2.66609277188760       -0.04926783771469
H            3.71892920755196        1.23679950105005        1.06655216207844
H            4.02788282395595        1.03067924883974       -0.66906192653364
H            2.71333796149646        2.10573406985795       -0.11349276870406
H            3.58683278645104       -1.63979339784287        0.04395271665684
H           -1.62829153179859        3.10133342127188        0.02091816539797
H           -2.79024853254892        2.14813973476706       -0.94501026311911
H           -2.86083473210508        2.09126388952006        0.82766127986900
H           -1.12332985973840       -3.21222600103246        0.83847809464898
H           -1.12325070748570       -3.19271286574133       -0.94705046560230
H           -2.53817589768782       -2.59353986602658       -0.04814164007374
H            1.38359185264083       -2.94100726555775       -0.00351749305528
25
 energy: 10.722213740120 xtb: 6.6.1 (8d0f1dd)
C            3.26015953580018        1.18796628932835        0.07414529906386
N            2.30268201501051        0.12449561104580        0.03180495760272
C            2.61286504502168       -1.22777528992309        0.04322299852157
N            1.41593702153224       -1.93035524462111        0.02222761824727
C            0.35931251518203       -1.05944967706583       -0.00234546750018
C            0.90366741473191        0.21623462645587        0.00993111746003
C            0.08118306940417        1.34526779803026       -0.01538672446363
O            0.50416285325939        2.52102081253282       -0.02548810277309
N           -1.33596433764761        1.00543985138017       -0.04878221095634
C           -2.16876845531663        2.20585303752225       -0.00276486279516
C           -2.04959407062991       -0.23996459206138       -0.18017207908824
O           -3.27268863590080       -0.35110969699848       -0.24302880335273
N           -1.02062622334325       -1.30763251511582       -0.05354113427959
C           -1.42472777377130       -2.69654228241462       -0.03330779530872
H            3.72028247324132        1.26966843881700        1.06664440282358
H            4.05833562080375        1.01620115361077       -0.65667333597344
H            2.74135977982453        2.11642556083201       -0.15383391910106
H            3.60018625087727       -1.63021585867078        0.04813823762347
H           -1.55683435432217        3.11267584533806        0.10242294977923
H           -2.73868629934860        2.25572491587748       -0.93066914027436
H           -2.83957340638926        2.12127716385534        0.84825232690267
H           -1.03768062064998       -3.23527601994747        0.84414769349371
H           -1.09078438376957       -3.22432561916481       -0.93297530232126
H           -2.50944161188091       -2.67150387942251        0.00131713470545
H            1.39745124621721       -2.93507182704833        0.01374803811157
25
 energy: 27.492070426028 xtb: 6.6.1 (8d0f1dd)
C            3.26510127072042        1.18868536339560        0.06860219791808
N            2.29238304508139        0.13579393505938        0.02833840556277
C            2.60558467999619       -1.22595668825993        0.05536386766824
N            1.40211174190850       -1.92574653401418        0.03135869296952
C            0.33643191858205       -1.06336529644940       -0.00730500109268
C            0.88632597532691        0.21180063713461        0.00122777862174
C            0.06217048033933        1.32639212903350       -0.03627321688014
O            0.48811557053046        2.50277756057435       -0.04901511975839
N           -1.38386143811428        0.98739703335574       -0.06297781281693
C           -2.14469504225304        2.24070593650533        0.02788823464716
C           -2.16070702017798       -0.25638352339457       -0.24517826130322
O           -3.38156630945213       -0.33685763949485       -0.34406493190133
N           -1.06388069961601       -1.31131423000743       -0.06982980798337
C           -1.39247473873035       -2.72725654801602       -0.02033142979736
H            3.70709788355329        1.29780171227056        1.06934924807464
H            4.08476770275944        0.98878063569145       -0.63550239686753
H            2.77229330078975        2.12310215785208       -0.19975181245884
H            3.59927530847732       -1.61514796303525        0.05769163890291
H           -1.48586432823700        3.11556315572819        0.18956434601104
H           -2.68731624140135        2.38052439533037       -0.91353453747899
H           -2.82713992989639        2.15674992363070        0.86822728585458
H           -0.94220001952948       -3.24701356558079        0.84644462729278
H           -1.05966556383588       -3.25545447595018       -0.92234617086193
H           -2.47758827097161       -2.76991714343158        0.05681214326367
H            1.41751539208670       -2.93263236575576        0.03227592856089
25
 energy: 36.734109937143 xtb: 6.6.1 (8d0f1dd)
C            3.26268229750519        1.18340600528939        0.06818735180863
N            2.28058692434558        0.13550388266716        0.02751435195996
C            2.59083533219888       -1.22112383590299        0.06530600418086
N            1.39450182769588       -1.92473451620871        0.03239078026486
C            0.32155180495290       -1.06855168981282       -0.01884588350017
C            0.87573398877274        0.20607209558205       -0.00959091766093
C            0.04825873423200        1.32506476990537       -0.06205955466029
O            0.48041575702616        2.49263207247356       -0.07763602317518
N           -1.41224977884820        0.98791118956878       -0.07446445593078
C           -2.13389321481131        2.26202847618585        0.04883617785007
C           -2.21999254463243       -0.26053468934560       -0.27509611062352
O           -3.43173570880467       -0.32558677352405       -0.38793380636157
N           -1.08387069056807       -1.31714026785237       -0.08474311395806
C           -1.36804472550424       -2.74550072248951       -0.01556099194644
H            3.68338911168009        1.31274393326609        1.07628277546902
H            4.09842235624301        0.95950096480592       -0.61074580859209
H            2.79274458639693        2.12089887283079       -0.23339448860205
H            3.59024020302337       -1.60135200041731        0.06763041207159
H           -1.45132063767220        3.11060402125905        0.24581608468682
H           -2.64902488997547        2.46319599564578       -0.89531859177674
H           -2.82785392702325        2.18090224515830        0.87851939504957
H           -0.87604084653242       -3.24332304609197        0.84256453104450
H           -1.04157035401697       -3.27313823231425       -0.92074522150921
H           -2.44677362139607       -2.83773219289926        0.09635482168865
H            1.43522268364885       -2.93271795560735        0.04376617836981
25
 energy: 37.683704957748 xtb: 6.6.1 (8d0f1dd)
C            3.25722922260913        1.17866135384719        0.06915330640970
N            2.27276903675964        0.13106469635063        0.02773871926255
C            2.57960411047318       -1.21590493969740        0.06986160238777
N            1.39303808571796       -1.92543208425529        0.03035527514823
C            0.31671830241618       -1.07171585072322       -0.02517669518894
C            0.87182709643332        0.20242225184558       -0.01476215846891
C            0.04456682661331        1.32935339874574       -0.07525599361860
O            0.48243611069339        2.48828625647310       -0.09837091552833
N           -1.41775777864585        0.99566889332791       -0.07792772438300
C           -2.13237233276013        2.26642013019619        0.05505601132696
C           -2.23168606484290       -0.25723075973237       -0.27490772126033
O           -3.43635302478297       -0.31890990879259       -0.39293791350127
N           -1.08325920098440       -1.32299771817885       -0.08915867102409
C           -1.35837483909087       -2.74979044896932       -0.01541953925231
H            3.66415214219924        1.31710490077307        1.08035653945679
H            4.09898464211741        0.94312435909697       -0.59511167884351
H            2.79821961431024        2.11459532145562       -0.24771249561910
H            3.58174655699837       -1.59320568460457        0.06967555033831
H           -1.44719955364424        3.10210838921201        0.26969409464920
H           -2.62892512052655        2.49308207858514       -0.88648758436262
H           -2.83681020311889        2.18557113525841        0.87582818242401
H           -0.85343440746260       -3.23549908429307        0.83650919938459
H           -1.03871346567607       -3.27667870555983       -0.92333751389350
H           -2.42846755985046       -2.85826539543103        0.11239003659783
H            1.44427647198080       -2.93280398275813        0.04698198370587
25
 energy: 36.506835450946 xtb: 6.6.1 (8d0f1dd)
C            3.25296290933070        1.17703001921717        0.06908481862777
N            2.26893269420977        0.12835368505278        0.02781057247232
C            2.57452368598875       -1.21231984675593        0.07293905766039
N            1.39324920042470       -1.92616218813118        0.02924082810843
C            0.31573187816715       -1.07250016576947       -0.02712848976636
C            0.87022813413714        0.20120932655933       -0.01608404139818
C            0.04412517034160        1.33146811805891       -0.07832202726559
O            0.48391617466257        2.48741717608205       -0.10732508933940
N           -1.41481351270864        1.00054754948372       -0.07945333399474
C           -2.13242921906470        2.26549255473574        0.05444036456589
C           -2.22773928097930       -0.25303038168210       -0.27074302837134
O           -3.43015134409936       -0.31538813305244       -0.38946653997482
N           -1.07694696667472       -1.32750000358470       -0.08972588198255
C           -1.35663949133126       -2.75012716034253       -0.01487193182294
H            3.65256003610337        1.31927986211193        1.08143572103712
H            4.09655501168643        0.93598951312109       -0.58774689228947
H            2.79703348441547        2.11017669415945       -0.25452569106884
H            3.57718424425400       -1.59025761014246        0.06708405026539
H           -1.44726629269059        3.09532825041914        0.28648199476695
H           -2.61693186058499        2.50767050831137       -0.88806555818479
H           -2.84747771006018        2.17995599393391        0.86651266679322
H           -0.84489659364034       -3.23219104855755        0.83229392873889
H           -1.04295108355529       -3.27664480385610       -0.92535969577065
H           -2.42304492405477       -2.86221051207694        0.12139751720389
H            1.44650032365875       -2.93255879512331        0.04713057713668
25
 energy: 35.793573199873 xtb: 6.6.1 (8d0f1dd)
C            3.25141126664600        1.17718371411504        0.06875684647412
N            2.26784858378240        0.12774244039102        0.02780827874355
C            2.57387632442287       -1.21100407086211        0.07626633034647
N            1.39338800966801       -1.92659522574174        0.02920773037027
C            0.31552161373486       -1.07222756394162       -0.02729223321729
C            0.86956389379031        0.20113118766800       -0.01641975240435
C            0.04354663277580        1.33113696913696       -0.07894889132616
O            0.48345306330599        2.48749817915680       -0.10941518574968
N           -1.41208252908592        1.00210887142910       -0.08050850333843
C           -2.13209737391009        2.26538721699839        0.05402267584872
C           -2.22425721056929       -0.24956872422008       -0.26991185739166
O           -3.42695756478768       -0.31344539562112       -0.38717679386140
N           -1.07237461192197       -1.32979588125846       -0.09026684795952
C           -1.35653314384798       -2.75062880029477       -0.01416987648087
H            3.64744353790205        1.32179833064802        1.08183637373998
H            4.09639441179759        0.93315846215691       -0.58429296105766
H            2.79598839859071        2.10874104192064       -0.25893185636679
H            3.57609115381277       -1.59048596944430        0.06363768037745
H           -1.44920315580593        3.09322059199231        0.29567008343950
H           -2.60924942519954        2.51325391148988       -0.88927002820715
H           -2.85417055732770        2.17555956910958        0.85952964150028
H           -0.84119803107057       -3.23341841181482        0.82998472017246
H           -1.04771635703077       -3.27787678997331       -0.92632903311016
H           -2.42227752008520       -2.86125229703374        0.12653629782284
H            1.44580525834954       -2.93259275383469        0.04671105778277
25
 energy: 35.403870974645 xtb: 6.6.1 (8d0f1dd)
C            3.25076338183832        1.17804593646268        0.06818665222969
N            2.26763488810898        0.12788536929516        0.02778967170028
C            2.57520815144755       -1.21032894318465        0.08145401400389
N            1.39387582771339       -1.92706301937746        0.02994786609915
C            0.31567083386771       -1.07200722341507       -0.02676213854037
C            0.86934335762220        0.20104748768206       -0.01641918088473
C            0.04171808563383        1.32946653217578       -0.07935259118397
O            0.48123103012028        2.48731098522032       -0.10967560589697
N           -1.41032181947966        1.00219316416968       -0.08147663833615
C           -2.13181889548127        2.26579435712459        0.05373042649188
C           -2.22249360363042       -0.24546798026577       -0.27065149597403
O           -3.42614844566923       -0.31205670578008       -0.38524027649447
N           -1.06781739086179       -1.33196398217439       -0.09114526680102
C           -1.35655031940461       -2.75161490757956       -0.01328950541384
H            3.64444686069867        1.32522885366774        1.08159151604728
H            4.09693300116515        0.93190816778731       -0.58195440616409
H            2.79539719200578        2.10820757935447       -0.26287199257769
H            3.57659543911471       -1.59156673344255        0.05790704451088
H           -1.45025811845688        3.09135109311564        0.30550950031456
H           -2.60082225738684        2.51910772665714       -0.89169083485643
H           -2.86056543291853        2.17098274164541        0.85217311923145
H           -0.83923654632544       -3.23630825299834        0.82835942040278
H           -1.05299045008220       -3.28038261202515       -0.92669203952904
H           -2.42230433883469       -2.85778401602883        0.13090132187100
H            1.44472423713126       -2.93295701591423        0.04670531589727
25
 energy: 35.516610546375 xtb: 6.6.1 (8d0f1dd)
C            3.25098450207552        1.17870728360173        0.06802213804955
N            2.26797324212234        0.12829099665305        0.02786649423070
C            2.57710574514425       -1.21033724912059        0.08608296104870
N            1.39459582061055       -1.92735907191441        0.03078627458042
C            0.31618213820412       -1.07225414451244       -0.02636247843369
C            0.86978844694021        0.20072071722061       -0.01630897977065
C            0.03999036385045        1.32779734799242       -0.07965474545207
O            0.47955065469882        2.48650570380327       -0.10879543076465
N           -1.41050217942039        1.00147607109086       -0.08140100056328
C           -2.13180432422922        2.26645919671829        0.05378270051904
C           -2.22363791353182       -0.24228470145413       -0.27164120878021
O           -3.42789806433874       -0.31137835518337       -0.38435761202258
N           -1.06554544020501       -1.33294206756576       -0.09195452495473
C           -1.35656018859338       -2.75228776468485       -0.01306747417508
H            3.64454394616349        1.32686916801969        1.08127566843507
H            4.09747916063810        0.93229042190052       -0.58159213506778
H            2.79551744611137        2.10853748143494       -0.26387275604444
H            3.57790003826608       -1.59217141437064        0.05252156939695
H           -1.45084777142267        3.09063584346924        0.30878772615749
H           -2.59652726421477        2.52058540099654       -0.89270881311046
H           -2.86298538007085        2.16992454879993        0.84893235654195
H           -0.83935535839649       -3.23834271654274        0.82802194383726
H           -1.05520175995123       -3.28204215563217       -0.92660052137417
H           -2.42297811104257       -2.85498614589011        0.13204426171305
H            1.44444691852811       -2.93338579265800        0.04722748215093
25
 energy: 35.945654469504 xtb: 6.6.1 (8d0f1dd)
C            3.25128273485954        1.17915509406936        0.06803755645985
N            2.26822824783360        0.12870641605186        0.02801640703332
C            2.57908761598628       -1.21035449962766        0.09161062362898
N            1.39578628320154       -1.92768875949165        0.03174423113734
C            0.31706401046455       -1.07315227051659       -0.02626390381309
C            0.87051528587863        0.20000640130284       -0.01629051285509
C            0.03822910547060        1.32604133667065       -0.07985628258082
O            0.47826641412894        2.48502946292228       -0.10780836534396
N           -1.41193963290520        1.00029724000731       -0.08082696418406
C           -2.13194780946279        2.26724378346132        0.05380000560095
C           -2.22687217156304       -0.23899956205058       -0.27276388154985
O           -3.43131384708298       -0.31086972976007       -0.38392907928979
N           -1.06391341861166       -1.33382399709342       -0.09264583831575
C           -1.35630916020480       -2.75298630578232       -0.01301649053887
H            3.64591670878609        1.32718843907153        1.08089214377489
H            4.09751324343715        0.93332030468161       -0.58244083904756
H            2.79567122781764        2.10922539436558       -0.26325131842727
H            3.57951488725947       -1.59178655601024        0.04590589964940
H           -1.45014509973436        3.09017298631072        0.31015404765256
H           -2.59415113618269        2.52163461940178       -0.89398776940423
H           -2.86383698496403        2.17049578874521        0.84759036942963
H           -0.84087757812890       -3.23982337675929        0.82882031430241
H           -1.05537555714421       -3.28349335873867       -0.92600898095632
H           -2.42346356359187       -2.85261978092423        0.13113660892975
H            1.44528486238876       -2.93389046813545        0.04841591485489
25
 energy: 36.467577010441 xtb: 6.6.1 (8d0f1dd)
C            3.25139604925567        1.17911418338165        0.06840720866749
N            2.26814652569909        0.12881568121478        0.02834177267406
C            2.58031926453676       -1.21019542933452        0.09739420197866
N            1.39709786130748       -1.92803390155277        0.03239270737197
C            0.31805342099872       -1.07440236438212       -0.02676613379386
C            0.87118123530707        0.19916118727596       -0.01659522997857
C            0.03730857090631        1.32487505568655       -0.08001169357242
O            0.47808949562301        2.48349516293892       -0.10723024083898
N           -1.41369644308408        0.99947047345670       -0.08002878381047
C           -2.13203935968335        2.26799422942663        0.05378287609241
C           -2.23070976815611       -0.23571574929821       -0.27342197558619
O           -3.43488774183568       -0.30999088523916       -0.38374575568540
N           -1.06266836740265       -1.33460741571348       -0.09299824032410
C           -1.35584140586878       -2.75351728249618       -0.01324885879904
H            3.64773499672509        1.32587785003695        1.08082114538743
H            4.09690645738835        0.93435197256064       -0.58386070715706
H            2.79557694217258        2.10981752615691       -0.26116963626244
H            3.58063029998341       -1.59048021352308        0.03926033632502
H           -1.44956055048273        3.09059432184584        0.30804446356632
H           -2.59454518541436        2.52050482348617       -0.89406006863971
H           -2.86285074902174        2.17283910376267        0.84847842660446
H           -0.84281638298623       -3.24068277747423        0.83010710136907
H           -1.05372962631871       -3.28431830271468       -0.92544611455034
H           -2.42371605587363       -2.85163391959828        0.12878896778983
H            1.44683518416075       -2.93430472773177        0.04979812731917
25
 energy: 36.916207214648 xtb: 6.6.1 (8d0f1dd)
C            3.25121481212506        1.17872113828811        0.06882908949486
N            2.26775761214490        0.12858859232976        0.02879018219927
C            2.58053903333337       -1.20977319727317        0.10265409016618
N            1.39821271355988       -1.92833146257810        0.03268701783085
C            0.31882097749487       -1.07562011139854       -0.02769400213740
C            0.87142197699268        0.19847436027185       -0.01722007861052
C            0.03736382795061        1.32447155644277       -0.08007190737822
O            0.47851925124602        2.48252635002229       -0.10727663563919
N           -1.41518441339963        0.99911430299002       -0.07970894318477
C           -2.13205324692253        2.26844921941635        0.05364969296195
C           -2.23397226313293       -0.23310414784789       -0.27385755879123
O           -3.43761303558458       -0.30889369739652       -0.38385731356163
N           -1.06157365250539       -1.33552060609109       -0.09289319404017
C           -1.35517759981244       -2.75399438331860       -0.01345604361080
H            3.64910800519887        1.32385562528905        1.08092118508136
H            4.09587914855246        0.93488390773939       -0.58524867357954
H            2.79513346637416        2.11004499055598       -0.25889832785685
H            3.58088232710157       -1.58871340853452        0.03391560370757
H           -1.44853647187711        3.09148299967319        0.30524735040696
H           -2.59696102496101        2.51959844369046       -0.89392264363391
H           -2.86098832349431        2.17517896014015        0.85065436663932
H           -0.84440859709306       -3.24121365708682        0.83141750703739
H           -1.05138482691160       -3.28482654570173       -0.92501819642234
H           -2.42336802256580       -2.85184190998561        0.12630229233630
H            1.44858299412223       -2.93452871746488        0.05108903673187
25
 energy: 37.093479988186 xtb: 6.6.1 (8d0f1dd)
C            3.25105734973516        1.17828596159063        0.06915909873177
N            2.26752210235499        0.12818598448295        0.02923648526166
C            2.58009751085662       -1.20942422766027        0.10579834321074
N            1.39865186120358       -1.92844549839406        0.03263149460971
C            0.31907023697449       -1.07613916005757       -0.02853072722117
C            0.87129290329833        0.19830626573661       -0.01784181354310
C            0.03824578052746        1.32478536474829       -0.08008342262643
O            0.47909977817088        2.48258094399513       -0.10749698585793
N           -1.41568457529800        0.99935912716235       -0.07996250534416
C           -2.13199478837317        2.26853636994872        0.05359360408927
C           -2.23522585657420       -0.23175641972037       -0.27398086582983
O           -3.43848029118795       -0.30787618085001       -0.38408922974117
N           -1.06078686046897       -1.33616002886985       -0.09256464362362
C           -1.35472408374534       -2.75422900198263       -0.01368824600508
H            3.64963333454754        1.32244481348072        1.08114845829410
H            4.09524236612763        0.93483486142886       -0.58578766626848
H            2.79472017060576        2.10985948560094       -0.25758298622317
H            3.58042141414635       -1.58773810410910        0.03158203679501
H           -1.44840622067819        3.09260973257244        0.30209405298851
H           -2.60006873708277        2.51801750042429       -0.89290580135852
H           -2.85902408222942        2.17665061101288        0.85293476504986
H           -0.84483257457460       -3.24166367042636        0.83175391742929
H           -1.05004595644877       -3.28495391721094       -0.92513798924564
H           -2.42293287611893       -2.85253061583771        0.12508347250263
H            1.44936676216782       -2.93451159489404        0.05167105007303
25
 energy: 37.121631533789 xtb: 6.6.1 (8d0f1dd)
C            3.25102675897483        1.17802933882990        0.06925492314471
N            2.26761428825466        0.12776890563202        0.02966067681761
C            2.57955513784642       -1.20919938056875        0.10781641132601
N            1.39864311329298       -1.92840153413244        0.03258386046238
C            0.31893765926956       -1.07609118946553       -0.02908353504123
C            0.87099099355486        0.19851173609516       -0.01831935392087
C            0.03942944882950        1.32534781557197       -0.08002751281710
O            0.47922804944270        2.48333485417512       -0.10764662889067
N           -1.41569676865015        0.99974211042005       -0.08079813311371
C           -2.13200261058921        2.26835271527351        0.05358971063742
C           -2.23532413907157       -0.23128434290155       -0.27423498565729
O           -3.43843148868434       -0.30709055948698       -0.38450649750238
N           -1.06006749796977       -1.33675239722159       -0.09223217933280
C           -1.35441535321419       -2.75444942148488       -0.01382662529853
H            3.64947954992863        1.32219285086493        1.08127691129355
H            4.09515986136577        0.93442233460609       -0.58556820753299
H            2.79446632004929        2.10942649722356       -0.25754488772237
H            3.57976434203095       -1.58765679620824        0.03094461599602
H           -1.44824224815089        3.09343528489959        0.30029231223760
H           -2.60289617503845        2.51744117137616       -0.89213149562529
H           -2.85757044665078        2.17675072192997        0.85469308046682
H           -0.84429484241807       -3.24229145045627        0.83127140052084
H           -1.05008485690423       -3.28515526595694       -0.92559637218793
H           -2.42237528644385       -2.85299181788313        0.12529389183802
H            1.44932085888162       -2.93436357895984        0.05187251604948
