25
 energy: 0.000000000000 xtb: 6.6.1 (8d0f1dd)
C            3.23720163006194        1.16630919979326        0.08434469647475
N            2.29877817382611        0.07527477071623        0.03981603040599
C            2.58028210190900       -1.21425402444508        0.03006176031096
N            1.43813958087363       -1.93419271955128        0.00098261760884
C            0.39035688448383       -1.05887472636071       -0.00790371836672
C            0.93510056364412        0.21347819449412        0.01709077491437
C            0.09450143893243        1.40504303904423       -0.00410947031874
O            0.49712751527797        2.54126714362870       -0.00342325688240
N           -1.25076640035757        1.06271879480407       -0.03085478223738
C           -2.21907211982101        2.15522099834493       -0.05001256985998
C           -1.81739487048744       -0.20012725993278       -0.04692818574614
O           -2.99983886758376       -0.37846417018721       -0.07008878229737
N           -0.92618586207120       -1.30210215599479       -0.03682761578324
C           -1.46982264913417       -2.64643102187190       -0.06029820460571
H            3.71247264356769        1.21471455160235        1.06488849150277
H            4.00791497605742        1.03430808813993       -0.67357694370751
H            2.69910007168542        2.09770118228144       -0.09130154882931
H            3.56654120610678       -1.63682992603973        0.04233140067262
H           -1.67107961066214        3.09322851271934       -0.02552706933167
H           -2.82428953597071        2.09428624779827       -0.95318082946668
H           -2.87644029173232        2.07745725625962        0.81450067533302
H           -1.17061996399332       -3.19584890659852        0.83242232437030
H           -1.14560257411436       -3.17511610292205       -0.95688275822323
H           -2.55549792440841       -2.55659984320617       -0.07459039797972
H            1.38130855184625       -2.94313852034425       -0.01389874181052
25
 energy: -3.027504274395 xtb: 6.6.1 (8d0f1dd)
C            3.24753972923105        1.17873739875157        0.08163503429662
N            2.30495934461555        0.09933775517663        0.03700315068072
C            2.60096918195288       -1.22520369404773        0.03398628333768
N            1.42934360073827       -1.93654710477113        0.00859226979727
C            0.38215082478408       -1.05882649554023       -0.00676697677392
C            0.92339977041513        0.21708599124609        0.01383745574573
C            0.09215632120263        1.38315372024001       -0.00719195053648
O            0.50441537053065        2.54559138295992       -0.00831163991362
N           -1.28221050054036        1.03967171503689       -0.03873214740885
C           -2.20215957009896        2.16970239502907       -0.03402251799204
C           -1.89939244981102       -0.21380974260670       -0.09643173711989
O           -3.10772810565983       -0.37051648979337       -0.12434372815936
N           -0.96201775746541       -1.30532263326894       -0.04348948459275
C           -1.45648232557899       -2.66333944331320       -0.05055027570702
H            3.71900379503677        1.23562241543808        1.06671442789947
H            4.02577574445098        1.03198636601013       -0.66987779780372
H            2.71125355199545        2.10549315415339       -0.11104267383430
H            3.58490626687972       -1.64272780708599        0.04411748071696
H           -1.63048539537589        3.09730414560838        0.01660130703922
H           -2.79495968744988        2.14348840962226       -0.94606677201726
H           -2.86322695311760        2.08971797592341        0.82657558407114
H           -1.12802940024087       -3.20942553240601        0.83785145917920
H           -1.12531673918746       -3.19075891203661       -0.94773830157012
H           -2.54083934709468       -2.59004827140367       -0.05098303902151
H            1.37918939772400       -2.94133809675024       -0.00433151416588
25
 energy: 5.006312661268 xtb: 6.6.1 (8d0f1dd)
C            3.25707617082133        1.18747701031977        0.07507352779601
N            2.30169863293136        0.12239169170211        0.03172699806136
C            2.60908350278448       -1.23030585407945        0.04291986373023
N            1.41254977028189       -1.93138650263377        0.02066491886114
C            0.36300898942867       -1.05824696544005       -0.00440475268558
C            0.90413862722918        0.21844269168853        0.00866958259228
C            0.08158666460682        1.35008910229554       -0.01558650082985
O            0.49555626861959        2.52703096449356       -0.02205185389599
N           -1.32778061657535        1.01060801234506       -0.04973486176262
C           -2.17605173392853        2.19831493027975       -0.00720506226987
C           -2.00916735722993       -0.23269572661698       -0.16449755510090
O           -3.22787679351063       -0.35938369647477       -0.22924181769360
N           -1.00930275749849       -1.30660408714271       -0.05392619894956
C           -1.43043772330630       -2.69009559181908       -0.03617607345034
H            3.71960260103174        1.26678642248629        1.06644560735862
H            4.05254041587755        1.01935543949008       -0.65883785116934
H            2.73566636708641        2.11567875052299       -0.14839397491575
H            3.59382076248369       -1.63767391045939        0.04913540269952
H           -1.56097095758891        3.10235655375892        0.09356567740961
H           -2.75068850286997        2.24579543884644       -0.93289058784654
H           -2.84569943781014        2.11671019796827        0.84570648175752
H           -1.04892732051698       -3.22745695716021        0.84344499279195
H           -1.09557872692660       -3.21949017215473       -0.93417509170895
H           -2.51603185897174       -2.66315317663043       -0.00559042371621
H            1.38439968148706       -2.93551596341377        0.01239344908413
25
 energy: 15.223399429532 xtb: 6.6.1 (8d0f1dd)
C            3.25951637878728        1.18790469247690        0.06918347047836
N            2.29089775703720        0.13239612540682        0.02764470962427
C            2.59976527320679       -1.22996882211781        0.05511387218551
N            1.39677034563417       -1.92699891612911        0.02982543291096
C            0.34217191695876       -1.06078255615411       -0.00951687653077
C            0.88703449542892        0.21585174650294       -0.00089646046400
C            0.06372951409099        1.33337404892904       -0.03474801314286
O            0.47563023335024        2.51216517020179       -0.04249306483119
N           -1.36921403402566        0.99504741837630       -0.06418599425724
C           -2.15594363347624        2.22855269136061        0.02125843970588
C           -2.09301324712540       -0.24496897722649       -0.22271484807783
O           -3.30851440257242       -0.35164587124710       -0.32536040522702
N           -1.04548349790174       -1.30893755435323       -0.07042862167827
C           -1.40154830857090       -2.71642651555286       -0.02437267648581
H            3.70486012509953        1.29295660615385        1.06843403377033
H            4.07493951715430        0.99383794213105       -0.64007495412843
H            2.76153240799111        2.12150309712379       -0.19188068943014
H            3.58880242898050       -1.62764036303184        0.05953353754312
H           -1.49416212774796        3.10039721933799        0.17669237305584
H           -2.70690498350970        2.36329381238073       -0.91654411262612
H           -2.83687296761254        2.14634748960965        0.86403544518565
H           -0.96074375122102       -3.23416022294394        0.84642732135436
H           -1.06794675718885       -3.24726410226094       -0.92389652576569
H           -2.48800544446654       -2.75274467927087        0.04546839247590
H            1.39491742963538       -2.93306087753127        0.03053011050252
25
 energy: 20.124117151653 xtb: 6.6.1 (8d0f1dd)
C            3.25571380620407        1.18261788844969        0.06756926309513
N            2.27905592280971        0.13170479755855        0.02576665203903
C            2.58380249801663       -1.22659965048453        0.06572480445298
N            1.38690213023923       -1.92556398270164        0.03204750935066
C            0.32751779127756       -1.06428311865198       -0.02017258774709
C            0.87645214247369        0.21175052057476       -0.01231522050432
C            0.05069241173914        1.33237690059019       -0.05840615249571
O            0.46530034985321        2.50414313199459       -0.06850103606816
N           -1.39341184577418        0.99530337660615       -0.07546993935325
C           -2.14711109406125        2.24720616843650        0.04194393093056
C           -2.13376630404319       -0.24675290039683       -0.25056791812928
O           -3.34024294046536       -0.34517258219612       -0.37269894520101
N           -1.06265954247484       -1.31202211562842       -0.08617719112461
C           -1.37918936919213       -2.73169413912079       -0.01975236621410
H            3.67972412092439        1.30775185062789        1.07445591071914
H            4.08705564072809        0.96541603992016       -0.61745780160691
H            2.77850522868336        2.11891602941133       -0.22615380645154
H            3.57714679632517       -1.61784774038824        0.07047424777163
H           -1.46208123559383        3.09307803857973        0.23346670311718
H           -2.67312044373198        2.44297710071032       -0.89851088126905
H           -2.83971999782484        2.16449842066667        0.87389106854464
H           -0.89704547088955       -3.22732542542029        0.84348292742752
H           -1.05203450006537       -3.26284780437151       -0.92192010785304
H           -2.46049271103141       -2.81555961654295        0.08355860669254
H            1.40522128380988       -2.93304258605130        0.04275622602439
25
 energy: 20.042394278274 xtb: 6.6.1 (8d0f1dd)
C            3.24949142288079        1.17704832805891        0.06790828177379
N            2.27035899232941        0.12707315370632        0.02484329479051
C            2.57031125154124       -1.22208757611099        0.07250335179787
N            1.38275881218550       -1.92559746196267        0.03081072648085
C            0.32052680060346       -1.06644596666008       -0.02786661811702
C            0.87157663336134        0.20882737627401       -0.02018865302876
C            0.04638904479184        1.33670633776090       -0.07479101828043
O            0.46573648826124        2.50065561601770       -0.09278343911051
N           -1.39945210059210        1.00191230482233       -0.08009949422867
C           -2.14573309880239        2.25209830095026        0.05129522030036
C           -2.13966849615026       -0.24264158437743       -0.25224355199748
O           -3.33874075838620       -0.34063168829254       -0.38395118933338
N           -1.06429795232513       -1.31522271953319       -0.09414162765436
C           -1.36821267155038       -2.73558258821060       -0.01945215623852
H            3.65557226475749        1.31432908295191        1.07968343163193
H            4.08976733318617        0.94508959692825       -0.59889387040966
H            2.78452950274605        2.11162186418324       -0.24630921568097
H            3.56614469361437       -1.61094260190494        0.07545848944005
H           -1.45719520282383        3.08318648937857        0.26502285072220
H           -2.65149074942354        2.47916863571530       -0.88676675273541
H           -2.85032344070739        2.16626307441434        0.87265178262954
H           -0.86747734637930       -3.21620852077050        0.83704840342519
H           -1.04877381959158       -3.26619132064060       -0.92457233516523
H           -2.44099911736297       -2.84034176414223        0.10382449651547
H            1.41141618177243       -2.93305776638436        0.04804348861994
25
 energy: 18.774283768196 xtb: 6.6.1 (8d0f1dd)
C            3.24518036421966        1.17495310202880        0.06779503643160
N            2.26657937991969        0.12459919316524        0.02382917339441
C            2.56445193681035       -1.21925282712673        0.07717540691767
N            1.38141276586304       -1.92583676411985        0.03015471949785
C            0.31841168008041       -1.06650552541612       -0.03063913595743
C            0.86960349384668        0.20835192650794       -0.02383391859667
C            0.04631444575031        1.33874635470017       -0.08123330422966
O            0.46718532482346        2.50077078147970       -0.10711296713069
N           -1.39724290782626        1.00519049964818       -0.08191020774848
C           -2.14583550972562        2.25076474615503        0.05326448575203
C           -2.13318787437726       -0.23890922891794       -0.24898738196902
O           -3.33036954653758       -0.33914760832576       -0.38282664118613
N           -1.06098013347948       -1.31737937274957       -0.09692517296933
C           -1.36608316781671       -2.73495934966389       -0.01898301134711
H            3.64000796794854        1.31880029336317        1.08209949217202
H            4.08980034378332        0.93519954469663       -0.58801434236074
H            2.78440419210480        2.10602512646213       -0.25754471021752
H            3.56064346588616       -1.60868454690139        0.07461775499458
H           -1.45719289003764        3.07519930806125        0.28818081659185
H           -2.63746862717807        2.49660724811017       -0.88623142838606
H           -2.86261979212180        2.15716670796239        0.86411784605413
H           -0.85561738547862       -3.20990688004192        0.83212899134101
H           -1.05310828030690       -3.26497590519550       -0.92687677345843
H           -2.43441579109453       -2.84521533888950        0.11528462837107
H            1.41234121288032       -2.93257288282072        0.04950454018636
25
 energy: 17.790996175189 xtb: 6.6.1 (8d0f1dd)
C            3.24325860926240        1.17480995063909        0.06758042317331
N            2.26557202378571        0.12389795945032        0.02287906481470
C            2.56293964639038       -1.21828890188638        0.08219975668897
N            1.38059354380261       -1.92596334587963        0.03039404128711
C            0.31781915705937       -1.06567214805866       -0.03147664792469
C            0.86881900735518        0.20895658449885       -0.02590683759860
C            0.04676646470340        1.33893686280997       -0.08471323839902
O            0.46711407826328        2.50191411073380       -0.11506126573691
N           -1.39437737516593        1.00600237984935       -0.08308039813968
C           -2.14549937937727        2.24940518162417        0.05441976787826
C           -2.12687396109911       -0.23598071097685       -0.24821663972579
O           -3.32457635949494       -0.33895001057177       -0.38007866126324
N           -1.05824269284099       -1.31825857482575       -0.09890407356634
C           -1.36640284099690       -2.73410376406576       -0.01823046476222
H            3.63000986283496        1.32424342667575        1.08372996725376
H            4.09158386214941        0.92975865427711       -0.58006033889223
H            2.78421993502539        2.10290469056728       -0.26657243559036
H            3.55855679268946       -1.60940444751942        0.07083808880819
H           -1.45955907909926        3.07038735080024        0.30614254632068
H           -2.62490349053209        2.50626008042886       -0.88724381791055
H           -2.87355315793971        2.14745759594004        0.85453316703382
H           -0.84871793298289       -3.20795476229719        0.82830461048223
H           -1.05999468104962       -3.26444390712333       -0.92854186212414
H           -2.43308464381455       -2.84468389658092        0.12423685292453
H            1.41074727900800       -2.93220175633728        0.04986229111552
25
 energy: 17.097499898195 xtb: 6.6.1 (8d0f1dd)
C            3.24287866273702        1.17571633124190        0.06724280266495
N            2.26615172687989        0.12407637680583        0.02206803282462
C            2.56385089073432       -1.21842351860864        0.08847044606702
N            1.38030721566519       -1.92596255017928        0.03144140509980
C            0.31817282230235       -1.06480685716858       -0.03118659384612
C            0.86897456526202        0.20975516593507       -0.02683639840289
C            0.04672728990663        1.33821253339354       -0.08700830859733
O            0.46520257047766        2.50305140184899       -0.11935861740430
N           -1.39246621922369        1.00519397161950       -0.08366859391652
C           -2.14523191232396        2.24824686074485        0.05515193060317
C           -2.12224547102643       -0.23392889281811       -0.24853476630445
O           -3.32122645316650       -0.34009042522979       -0.37699676422831
N           -1.05628762467089       -1.31851824879333       -0.10045579631752
C           -1.36758475660501       -2.73346195197654       -0.01741654588367
H            3.62350734037432        1.33085467843354        1.08457125028808
H            4.09456844329245        0.92704392575886       -0.57372239489146
H            2.78490341112644        2.10128898795006       -0.27446321261537
H            3.55850735284696       -1.61147973483573        0.06370424768302
H           -1.46195971390120        3.06611821995889        0.32242365354016
H           -2.61223685271436        2.51393243575938       -0.88984787810895
H           -2.88378118279995        2.13828985450255        0.84407859700850
H           -0.84526664208587       -3.20823732631344        0.82527703676527
H           -1.06808349616053       -3.26496104041692       -0.92960846108681
H           -2.43361951844310       -2.84081783655602        0.13153808346972
H            1.40845221945253       -2.93206375888468        0.05017074173669
25
 energy: 16.868246134391 xtb: 6.6.1 (8d0f1dd)
C            3.24345368988761        1.17669583896285        0.06711560630127
N            2.26726466775767        0.12452159703274        0.02183958502290
C            2.56555711665859       -1.21900747030070        0.09398117448757
N            1.38061051256692       -1.92585310502300        0.03256365109829
C            0.31902422283436       -1.06452926826421       -0.03058720940314
C            0.86978960133194        0.21006304880114       -0.02654121192663
C            0.04642877645512        1.33743959956253       -0.08766163744764
O            0.46330909585257        2.50327036535503       -0.11958239649987
N           -1.39221029880766        1.00398716596112       -0.08325629099514
C           -2.14523294604507        2.24777172401921        0.05519366119341
C           -2.12092160304894       -0.23326645739930       -0.24862843990264
O           -3.32068023126286       -0.34161674261050       -0.37503368870321
N           -1.05561878017070       -1.31828566747212       -0.10110082905840
C           -1.36874930519722       -2.73312721959950       -0.01709059675610
H            3.62175284098788        1.33515919912205        1.08464832293796
H            4.09681898568100        0.92693576277118       -0.57097675401939
H            2.78596607003418        2.10115182962537       -0.27815036632252
H            3.55946811144728       -1.61302149937245        0.05566005468158
H           -1.46370149997974        3.06356070058479        0.33034898300753
H           -2.60424696594768        2.51701418355603       -0.89215653290859
H           -2.88957343262208        2.13421875516952        0.83710196174723
H           -0.84513028052553       -3.20927427485303        0.82401767155695
H           -1.07313849603465       -3.26556797552338       -0.92992876868096
H           -2.43512090709009       -2.83708679008115        0.13466569055279
H            1.40709572317342       -2.93212469785232        0.05059225618404
25
 energy: 16.844045202328 xtb: 6.6.1 (8d0f1dd)
C            3.24405230218699        1.17750654587850        0.06708162447169
N            2.26816766849075        0.12495586302383        0.02198343893754
C            2.56712286479413       -1.21946307368880        0.10042672807212
N            1.38123205596645       -1.92573477767685        0.03371051491461
C            0.31999581306272       -1.06473389139764       -0.03016505475093
C            0.87070545724600        0.20995393635181       -0.02579708217520
C            0.04607548325835        1.33676836597699       -0.08752558379965
O            0.46181306859475        2.50284085699135       -0.11842659679647
N           -1.39278385116114        1.00276703973897       -0.08238758716877
C           -2.14536025782744        2.24764378571512        0.05476845989876
C           -2.12118822170586       -0.23336669224333       -0.24837653723073
O           -3.32117386526792       -0.34329430183553       -0.37379585377811
N           -1.05539106058205       -1.31803724866331       -0.10124307744498
C           -1.36963830847275       -2.73300862663194       -0.01682244554874
H            3.62171041452052        1.33798088229968        1.08443626663706
H            4.09820655579631        0.92750482858496       -0.56998519199433
H            2.78689571789175        2.10149856867200       -0.27996309619266
H            3.56043630208699       -1.61359047486400        0.04554554455956
H           -1.46447660338665        3.06151716475773        0.33576422864309
H           -2.59784035873149        2.51947565511359       -0.89498191912664
H           -2.89400432622173        2.13249270701993        0.83141926799709
H           -0.84643117232821       -3.21020014621870        0.82400385230383
H           -1.07600257315450       -3.26612272823015       -0.92964751815499
H           -2.43654960133139       -2.83408287547162        0.13559783271491
H            1.40664116421169       -2.93224276103071        0.05141368115924
25
 energy: 16.862425902242 xtb: 6.6.1 (8d0f1dd)
C            3.24447256818062        1.17811788394382        0.06727901204105
N            2.26877845448971        0.12529442817215        0.02262692889439
C            2.56849654966453       -1.21970752578782        0.11047815074716
N            1.38209824570717       -1.92565266775727        0.03497933129476
C            0.32112401625612       -1.06527578177128       -0.03016584163749
C            0.87168418242534        0.20954447843576       -0.02491362876458
C            0.04593096635215        1.33624342294760       -0.08693868219713
O            0.46084340873724        2.50203264250509       -0.11656616882132
N           -1.39355504441805        1.00170371239349       -0.08108003657373
C           -2.14547309731442        2.24773379930630        0.05389619031532
C           -2.12192935740218       -0.23381454895136       -0.24751966690434
O           -3.32177309261290       -0.34504814152459       -0.37257496881827
N           -1.05510739095280       -1.31777868165062       -0.10103421414690
C           -1.37043339801163       -2.73291848995060       -0.01657858391458
H            3.62259179119460        1.33971692275216        1.08418728217422
H            4.09876337007249        0.92827839777795       -0.57000120139287
H            2.78747753950534        2.10196601351890       -0.28048584519398
H            3.56102627143838       -1.61322556338929        0.03039996707393
H           -1.46545183913092        3.05978117551986        0.33988461147768
H           -2.59139823705767        2.52116207577340       -0.89809991513445
H           -2.89837325868377        2.13222333213287        0.82557755717878
H           -0.84887627678854       -3.21096863696334        0.82494276924064
H           -1.07726880298707       -3.26650739558052       -0.92893396581533
H           -2.43813673537232       -2.83149500286965        0.13486313477208
H            1.40670383464487       -2.93237724681115        0.05281168025229
25
 energy: 16.875722292321 xtb: 6.6.1 (8d0f1dd)
C            3.24446588696076        1.17843051569133        0.06774747850055
N            2.26886342376657        0.12546618472207        0.02404643032512
C            2.56953266169191       -1.21960819941197        0.12750660097565
N            1.38306376639810       -1.92567581767883        0.03655869016666
C            0.32229590360378       -1.06613644088283       -0.03102667796315
C            0.87255832263567        0.20880939135157       -0.02436960304696
C            0.04598986748225        1.33587965577104       -0.08624145511168
O            0.46033010930522        2.50092749027683       -0.11456539893911
N           -1.39435407108833        1.00085547258565       -0.07967121007087
C           -2.14549991013826        2.24799110947562        0.05255451489184
C           -2.12287924113869       -0.23467441516714       -0.24630026257152
O           -3.32225014542518       -0.34681193879506       -0.37131340690297
N           -1.05454927362950       -1.31762073441727       -0.10058636963412
C           -1.37089465717953       -2.73291870524189       -0.01623094609788
H            3.62424992459180        1.34022734359206        1.08393262691635
H            4.09813455598931        0.92891001505299       -0.57105155579654
H            2.78737236123700        2.10238970527942       -0.27975136025592
H            3.56048114255490       -1.61149124446978        0.00700885526260
H           -1.46620621437792        3.05821712156268        0.34431535931289
H           -2.58439081014303        2.52351916596085       -0.90207903286363
H           -2.90308630612347        2.13272249326263        0.81922575975305
H           -0.85237741901687       -3.21139352643582        0.82716883854059
H           -1.07630610240848       -3.26686570806678       -0.92757237959040
H           -2.43953904917194       -2.82960121725984        0.13228078522998
H            1.40720994156021       -2.93251911458565        0.05544761511677
25
 energy: 16.817463076169 xtb: 6.6.1 (8d0f1dd)
C            3.24391852563046        1.17803988248042        0.06841251958786
N            2.26824957307596        0.12516838545279        0.02571889167485
C            2.56955768562326       -1.21921185384489        0.14381243758587
N            1.38334944894679       -1.92584647720160        0.03747586001450
C            0.32274458639925       -1.06667943703812       -0.03277708476383
C            0.87283598763698        0.20815936544009       -0.02508723718144
C            0.04636618265057        1.33606633612228       -0.08607744022103
O            0.46084565152603        2.50027063527193       -0.11364663381694
N           -1.39425910038248        1.00111698261905       -0.07927076893691
C           -2.14532611257907        2.24825766283203        0.05160148022135
C           -2.12301283545556       -0.23545355721261       -0.24545243325784
O           -3.32193423812455       -0.34715645483148       -0.37071443748265
N           -1.05384578842878       -1.31757116896048       -0.10024452523544
C           -1.37054833406976       -2.73290757604957       -0.01623971981844
H            3.62639462471780        1.33821334275617        1.08384516022616
H            4.09609636088837        0.92916399022110       -0.57309201009307
H            2.78623276597848        2.10249807950165       -0.27705586158755
H            3.55785964070032       -1.60895386030264       -0.01230788617607
H           -1.46675595307525        3.05847366782488        0.34417507561610
H           -2.58272869658677        2.52343311979951       -0.90342380511938
H           -2.90391024039707        2.13419478402569        0.81748479458594
H           -0.85516796419956       -3.21101012204839        0.82953891726530
H           -1.07253683388093       -3.26684736820417       -0.92638566473633
H           -2.43980188104414       -2.82982532100574        0.12835862592612
H            1.40759161238595       -2.93256443547602        0.05838564187015
25
 energy: 16.718385417421 xtb: 6.6.1 (8d0f1dd)
C            3.24288167105333        1.17700502220801        0.06901922001825
N            2.26698662262295        0.12443726634803        0.02716713385556
C            2.56850752717346       -1.21865330882064        0.15498105805230
N            1.38254770944769       -1.92610910731395        0.03770259524992
C            0.32211994775076       -1.06657942999962       -0.03502667514956
C            0.87235736880947        0.20780837502992       -0.02735816714173
C            0.04672154180808        1.33670192952248       -0.08693649734758
O            0.46204760144705        2.50025427426316       -0.11466994039214
N           -1.39319546239815        1.00248444922113       -0.08056790205474
C           -2.14498022274553        2.24839848593255        0.05161138220185
C           -2.12227736461781       -0.23599422863948       -0.24585471126670
O           -3.32099576774065       -0.34576910662523       -0.37146588299755
N           -1.05325711639942       -1.31765979146969       -0.10045074557143
C           -1.36918740873161       -2.73294275168923       -0.01666120898390
H            3.62821377381770        1.33423110928824        1.08395341153476
H            4.09321900916182        0.92875718877488       -0.57543635736682
H            2.78434561827070        2.10223054418523       -0.27334650706964
H            3.55342441754339       -1.60632793535833       -0.02134354532497
H           -1.46601252402357        3.06052761673719        0.34009085925771
H           -2.58778687120942        2.52199793431345       -0.90171322973226
H           -2.90006131995298        2.13545386793813        0.82192652787970
H           -0.85564572232007       -3.20968947945579        0.83114080710013
H           -1.06689417645409       -3.26656983124929       -0.92581670420868
H           -2.43835570027489       -2.83250508793590        0.12463954702964
H            1.40749151589808       -2.93245940303335        0.06144942857515
25
 energy: 16.547133144141 xtb: 6.6.1 (8d0f1dd)
C            3.24222444670064        1.17638172501183        0.06944063405557
N            2.26621882079892        0.12393122368625        0.02819340061405
C            2.56773542216574       -1.21850490412539        0.16022066941401
N            1.38127902481613       -1.92622960159841        0.03850540881540
C            0.32127771077326       -1.06585480661815       -0.03590974843142
C            0.87193991143299        0.20797180600352       -0.02928988205894
C            0.04662673704557        1.33707365469287       -0.08858628700938
O            0.46247809071904        2.50071680759608       -0.11693616022203
N           -1.39174701420757        1.00366132385464       -0.08246472746120
C           -2.14467497429467        2.24820791022905        0.05240111212140
C           -2.12074460746811       -0.23578519923178       -0.24711655489225
O           -3.31983641604508       -0.34425535112525       -0.37248922125314
N           -1.05288143991623       -1.31762491119931       -0.10142607013877
C           -1.36820302595608       -2.73278887538469       -0.01728382342280
H            3.62812259318973        1.33268666078636        1.08437185556637
H            4.09211333839523        0.92791530366865       -0.57541841870041
H            2.78339201950354        2.10173144990068       -0.27215164348690
H            3.55099971966330       -1.60596171503050       -0.02388549471331
H           -1.46551330133009        3.06200064511321        0.33700637493116
H           -2.59297693415856        2.52066478643609       -0.89880607424385
H           -2.89634606393747        2.13453693510287        0.82660127165851
H           -0.85386781881379       -3.20861980443044        0.83044922333695
H           -1.06491254419035       -3.26635884342131       -0.92638015985922
H           -2.43686768588237       -2.83417377627412        0.12424413894718
H            1.40637865893261       -2.93229384147087        0.06374407258032
25
 energy: 16.409082102370 xtb: 6.6.1 (8d0f1dd)
C            3.24200315008511        1.17623370489300        0.06983723678426
N            2.26597218049285        0.12375094669590        0.02913525887785
C            2.56757348190904       -1.21865454715887        0.16422698625216
N            1.38019661090854       -1.92622600546999        0.03983281251428
C            0.32075728503615       -1.06508377785117       -0.03605197683901
C            0.87195151530988        0.20819991688262       -0.03055897033107
C            0.04613820053546        1.33708917884228       -0.09025206837799
O            0.46230402145670        2.50097134209264       -0.11902627195184
N           -1.39058735754835        1.00430431753912       -0.08419674252281
C           -2.14449995118876        2.24791874616464        0.05325608654415
C           -2.11951088556294       -0.23554161391868       -0.24862367089354
O           -3.31907872195445       -0.34333380629683       -0.37337413685895
N           -1.05275827773814       -1.31744943937253       -0.10281196325481
C           -1.36771719332572       -2.73257674137039       -0.01795853498832
H            3.62744553921896        1.33307197302669        1.08487357488084
H            4.09220438822119        0.92720551315705       -0.57423467221682
H            2.78325278260434        2.10135047253780       -0.27243839488175
H            3.54995926050246       -1.60666041009350       -0.02617959308898
H           -1.46507187350925        3.06275559960610        0.33517479408286
H           -2.59697273340142        2.51980278793217       -0.89637206504161
H           -2.89341130706005        2.13288520128979        0.83013634266028
H           -0.85162532524931       -3.20793771553919        0.82881166249248
H           -1.06551156295297       -3.26628061768458       -0.92741923119952
H           -2.43590007041405       -2.83459359516718        0.12549648529824
H            1.40510151156101       -2.93217282856503        0.06575094820695
25
 energy: 16.359268853890 xtb: 6.6.1 (8d0f1dd)
C            3.24220871294086        1.17649524554349        0.07023282859592
N            2.26619126921577        0.12389857185863        0.02976825970318
C            2.56796029172936       -1.21901164336080        0.16511914524562
N            1.37956520284583       -1.92612945752662        0.04102410055753
C            0.32067782425883       -1.06448044276240       -0.03563767398301
C            0.87243943581524        0.20833827267869       -0.03100539606250
C            0.04538479186276        1.33683170277644       -0.09138978153926
O            0.46203512347382        2.50077765429526       -0.12033053859017
N           -1.38981486764564        1.00451580165349       -0.08536459853144
C           -2.14444962293422        2.24766286864502        0.05401589977422
C           -2.11892039975115       -0.23550180531264       -0.24991794211240
O           -3.31884585329257       -0.34298206156555       -0.37418966722844
N           -1.05298963759326       -1.31711487524174       -0.10437528994628
C           -1.36776011992417       -2.73232120849875       -0.01871237563527
H            3.62653428695377        1.33475433713016        1.08541700781080
H            4.09322244528758        0.92682123051790       -0.57236885040537
H            2.78389122249576        2.10120166150844       -0.27362049938057
H            3.54984279919127       -1.60790272123095       -0.02578477951860
H           -1.46472059511200        3.06332831601285        0.33266213092180
H           -2.60085597675991        2.51806796372870       -0.89416906832802
H           -2.89044617885109        2.13177331577681        0.83341005210745
H           -0.84929360859213       -3.20764280918510        0.82640104955677
H           -1.06830654554484       -3.26617091050110       -0.92890974812921
H           -2.43552812861947       -2.83404430139213        0.12792066458785
H            1.40419279648592       -2.93213610337624        0.06683896667670
25
 energy: 16.384915168217 xtb: 6.6.1 (8d0f1dd)
C            3.24225510731808        1.17672020851050        0.07043920259116
N            2.26625362376542        0.12408995188099        0.03010103463578
C            2.56834886576539       -1.21901791087526        0.16774692030960
N            1.37991259501845       -1.92613636430675        0.04131555971627
C            0.32107411371173       -1.06472697474713       -0.03560561829945
C            0.87276556814568        0.20810183739989       -0.03056750755061
C            0.04518716320609        1.33662754181245       -0.09108057357523
O            0.46204571531573        2.50029130809294       -0.11987195895058
N           -1.38994122337715        1.00426097961194       -0.08498356823668
C           -2.14445802446860        2.24770196904010        0.05373574056943
C           -2.11922857822482       -0.23585194235930       -0.24974108436827
O           -3.31901179465361       -0.34349206462785       -0.37408792407072
N           -1.05299392512555       -1.31701391018830       -0.10455868857575
C           -1.36806002195782       -2.73227797334864       -0.01867861930013
H            3.62626097851488        1.33570819942494        1.08557669378164
H            4.09352410467116        0.92669249016668       -0.57177815972822
H            2.78424599713897        2.10124661265380       -0.27426552237877
H            3.54990701952544       -1.60764623896500       -0.02985052622155
H           -1.46468959876551        3.06309314534903        0.33318780157324
H           -2.59981497396426        2.51822807588789       -0.89508448802672
H           -2.89112755720203        2.13194104136115        0.83245428970761
H           -0.84939619734717       -3.20774910318924        0.82615072029035
H           -1.06952930405903       -3.26622158871691       -0.92901114607389
H           -2.43587277012522       -2.83333098207062        0.12854085789684
H            1.40455778511001       -2.93220970562541        0.06695046043197
