  72
        -99.27055234
 N         -1.5003172434        3.0688335315        2.1873055092
 C         -1.6933774960        2.1048503658        1.4155559600
 C         -2.9272307618        1.9444069185        0.5705914139
 C         -3.4912165222        0.5808098874        0.8309280523
 C         -4.7999114222       -0.0489446091        0.3569862307
 C         -5.0032386130       -0.9974853315       -0.8903093443
 O         -6.3048663768       -1.1037981358       -1.3510554768
 C         -6.7131065115       -0.0294049588       -2.1668772576
 C         -4.4839892960       -2.1140080381       -0.0048121087
 O         -4.2901597774       -3.3923790086       -0.2886348975
 C         -3.6568458027       -4.1567152274        0.7220178816
 C         -4.2636819230       -1.2891614539        1.0715299831
 C         -3.1285917668       -0.5039983584        1.5617798782
 C         -2.5120282956        2.0379381978       -0.9221703702
 C         -1.6414542572        0.8729582465       -1.4150814704
 C         -0.2543502286        0.9195853868       -0.9037840632
 N          0.4776818590       -0.1468023492       -0.5996346819
 C          1.8735917726       -0.0135357857       -0.2563066576
 C          2.7966723046       -0.3800671289       -1.4344499736
 C          4.2324522635       -0.2603668218       -1.0059180076
 C          4.9256940911        0.9274663211       -1.1686344791
 C          6.2384083344        1.0472934514       -0.7387631825
 C          6.8829120739       -0.0199841012       -0.1299074725
 O          8.1480930483       -0.0170921952        0.3275599218
 C          8.9295486081        1.1467592819        0.1839990243
 C          6.1784986658       -1.2439450995        0.0426207412
 O          6.8793111149       -2.2293021465        0.6380844392
 C          6.2762997099       -3.4865879112        0.8287483745
 C          4.8672662589       -1.3395724456       -0.3947606560
 C         -0.0588950213       -1.4839371837       -0.6821851020
 C         -4.0441116722        2.9888572999        0.8633884821
 C         -4.5127789367        2.9026392369        2.3144207589
 C         -3.6329803474        4.4226128919        0.5420743009
 H         -4.3017640893       -0.8030827227       -1.7205006245
 H         -6.6919396468        0.9203545071       -1.6210586217
 H         -7.7333341689       -0.2497178057       -2.4700010116
 H         -6.0754105419        0.0555003254       -3.0548643988
 H         -4.0675639948       -3.9064982379        1.7037089963
 H         -3.8474763970       -5.2018914854        0.4895754052
 H         -2.5787454926       -3.9701090544        0.7266682794
 H         -5.7122714350        0.4186375044        0.6846629338
 H         -2.3026013636       -0.7533380195        2.2026010213
 H         -3.4257982676        2.0558315752       -1.5176507807
 H         -1.9819489878        2.9761309890       -1.0834500068
 H         -2.1221517207       -0.0735151061       -1.1665568142
 H         -1.6008779496        0.9420602368       -2.5110516290
 H         -0.9722889942        1.2835605197        1.2649528337
 H          0.2392082131        1.8778055669       -0.8613802594
 H          2.0959384056       -0.6666101105        0.5923611307
 H          2.0746103605        1.0164538463        0.0440191278
 H          2.5945332089        0.2962081238       -2.2662556594
 H          2.5875809703       -1.4000685938       -1.7597729982
 H          4.4491866299        1.7706444034       -1.6450039803
 H          6.7546673224        1.9815214519       -0.8863065321
 H          8.4930957051        1.9915912599        0.7254069370
 H          9.0593799501        1.4143026507       -0.8688305935
 H          9.8978971321        0.9027677979        0.6165205126
 H          7.0354048394       -4.1058561886        1.3025254785
 H          5.4044062829       -3.4180008335        1.4874795273
 H          5.9825744066       -3.9397476703       -0.1232074810
 H          4.3273225534       -2.2661368973       -0.2760782392
 H         -0.3245516356       -1.7413106981       -1.7098019646
 H         -0.9522453423       -1.5752392640       -0.0595011818
 H          0.6843072682       -2.1928724091       -0.3265982806
 H         -4.8855362347        2.7205267124        0.2129874354
 H         -3.7196790709        3.2264580157        2.9811036977
 H         -4.7994217234        1.8880404663        2.5804753707
 H         -5.3723689355        3.5515295664        2.4605123444
 H         -2.7481382712        4.6936186688        1.1089559657
 H         -3.4422409053        4.5642833616       -0.5182139677
 H         -4.4396854543        5.0935131431        0.8255683459
 H         -0.6339280249        3.0826470869        2.7164725739
