25
 energy: -42.168435307304 gnorm: 0.008561520595 xtb: 6.6.1 (8d0f1dd)
C            3.28911215563885        1.01683080368742        0.20714576663428
N            2.40706992438903        0.01973612007347        0.13692725052304
C            2.63128901057213       -1.30147177141012        0.36669901279439
N            1.46141670266887       -1.98448034027166        0.27451095239471
C            0.47231081261226       -1.08813921761517       -0.02856510191702
C            1.06179579792928        0.14930991523766       -0.13695577805044
C            0.28244802446551        1.41280388411477       -0.41279892411764
O            0.70932718365335        2.46285253758822        0.20313074921791
N           -1.14715389905930        1.05949000934192       -0.08470367776288
C           -2.01354796155838        2.20038317322633        0.07569088546000
C           -1.72217496792658       -0.17245098788788       -0.10142263987543
O           -2.91727727430755       -0.34115792351727       -0.04779746729277
N           -0.86132043855961       -1.29701676460867       -0.13757755050038
C           -1.44278292050986       -2.61975250372539       -0.14940329068384
H            4.31537660495861        0.80298349725872        0.43373184695118
H            0.26152377512734        1.56402379512120       -1.53088373754842
H            2.92062575103331        2.02150545326217        0.08796539476317
H            3.58469069642127       -1.73702665999864        0.58376868166781
H           -1.41780164669141        3.00454170927841        0.51467804728658
H           -2.40595378171670        2.53476063070712       -0.88909166534938
H           -2.84994730673888        1.93780550194426        0.72215639881496
H           -1.29560207415074       -3.12500599318267        0.80793648157183
H           -1.01256412768868       -3.21698394179367       -0.95449553192382
H           -2.51439823923840       -2.50538400768104       -0.31666790918988
H            1.36396971277629       -2.97991837755331        0.40719342403773
