25
 energy: 0.000000000000 xtb: 6.6.1 (8d0f1dd)
C            3.23720132972391        1.16630909158653        0.08434468864950
N            2.29877796055224        0.07527476373246        0.03981602671198
C            2.58028186251803       -1.21425391179017        0.03006175752192
N            1.43813944744728       -1.93419254010258        0.00098261751768
C            0.39035684826767       -1.05887462812143       -0.00790371763344
C            0.93510047688824        0.21347817468824        0.01709077332874
C            0.09450143016486        1.40504290868848       -0.00410946993748
O            0.49712746915594        2.54126690785742       -0.00342325656480
N           -1.25076628431515        1.06271869620815       -0.03085477937476
C           -2.21907191394203        2.15522079838987       -0.05001256521996
C           -1.81739470187490       -0.20012724136556       -0.04692818139228
O           -2.99983858926755       -0.37846413507442       -0.07008877579474
N           -0.92618577614240       -1.30210203518959       -0.03682761236648
C           -1.46982251276835       -2.64643077634382       -0.06029819901142
H            3.71247229913541        1.21471443890471        1.06488839270555
H            4.00791460421487        1.03430799217987       -0.67357688121503
H            2.69909982127087        2.09770098766290       -0.09130154035862
H            3.56654087521359       -1.63682977417947        0.04233139674524
H           -1.67107945562430        3.09322822573871       -0.02552706696334
H           -2.82428927394145        2.09428605349656       -0.95318074103337
H           -2.87644002486466        2.07745706351925        0.81450059976605
H           -1.17061985538665       -3.19584861009707        0.83242224714061
H           -1.14560246782873       -3.17511580834413       -0.95688266944647
H           -2.55549768731684       -2.55659960601237       -0.07459039105944
H            1.38130842369251       -2.94313824728853       -0.01389874052104
25
 energy: -6.033169043379 xtb: 6.6.1 (8d0f1dd)
C            3.24009036367368        1.17236309033167        0.08631766632060
N            2.30454897566752        0.09425147111046        0.03437026481685
C            2.59417413589175       -1.25608859485060        0.03202905778910
N            1.40995872369628       -1.96566346844361        0.00061713391547
C            0.40139349003134       -1.06678990070429       -0.00847015287255
C            0.92030231473427        0.22177463997267        0.01444511103468
C            0.11651219014711        1.38732100902249       -0.00489794867928
O            0.49367102869618        2.56204001815550       -0.00402666958663
N           -1.26837830398302        1.05438496358404       -0.03126799483141
C           -2.22273973980670        2.15163579095304       -0.04973387400162
C           -1.81549840005151       -0.19252286887657       -0.04736817603579
O           -3.01423800879237       -0.38203037118828       -0.07045638033600
N           -0.93740501200089       -1.29532440467275       -0.03725527074395
C           -1.46469582779544       -2.63874328973856       -0.06022759203805
H            3.71965885453155        1.22305871229430        1.06781760072326
H            4.01131933802094        1.04292054148965       -0.67517464403536
H            2.70110903690485        2.10318449694372       -0.08915625659089
H            3.57330365177201       -1.66176643175206        0.04356281968373
H           -1.66814731461104        3.08764629234053       -0.02550877592238
H           -2.82877226021466        2.09587649346145       -0.95364952455875
H           -2.88038386896483        2.07909565754434        0.81590913439254
H           -1.15651292191788       -3.18863186152378        0.83225445551956
H           -1.13154855298047       -3.16839757046696       -0.95610404286366
H           -2.54959107742688       -2.55566795070119       -0.07466191599897
H            1.32315849438722       -2.98608294184254       -0.01489848298953
25
 energy: -4.786254924787 xtb: 6.6.1 (8d0f1dd)
C            3.23945362844050        1.17196468528491        0.08656406753318
N            2.30613538047528        0.08600198370755        0.03064706207401
C            2.58782911353317       -1.27403841223263        0.03073724529601
N            1.39728173928631       -1.99288129085133        0.00040393235236
C            0.40312680733784       -1.07271394579990       -0.00970787543885
C            0.92124401695389        0.21651791021138        0.01130179987660
C            0.11772696259935        1.38599994660803       -0.00579350145726
O            0.49188949208067        2.56253555355529       -0.00425347010585
N           -1.26935782639914        1.05656548860284       -0.03172596535451
C           -2.22507943337405        2.15276505721542       -0.04958817170775
C           -1.81667246454841       -0.18989226205951       -0.04800155245658
O           -3.01569195280306       -0.38064890760503       -0.07080257881325
N           -0.93728957455428       -1.29029010584932       -0.03773654423746
C           -1.45806717232369       -2.63526759511085       -0.06011201624403
H            3.72089886245260        1.22632185380943        1.06746501887728
H            4.01170041325033        1.04948584105371       -0.67528774487609
H            2.70113884671953        2.10526170754272       -0.08658423726357
H            3.57072761903440       -1.67004786043242        0.04800747019800
H           -1.67057657763306        3.08859511829009       -0.02541847331506
H           -2.83172470732499        2.09718623645164       -0.95330309339863
H           -2.88270812158307        2.08012964685833        0.81628648212250
H           -1.14377944612122       -3.18135417080724        0.83270702284129
H           -1.11903187320916       -3.16164866645363       -0.95583900497966
H           -2.54265098862104       -2.55773984959596       -0.07452011593539
H            1.26814938231056       -3.02896745914858       -0.01428941149015
25
 energy: -2.285902544511 xtb: 6.6.1 (8d0f1dd)
C            3.23903113045832        1.17299555479108        0.08671952104019
N            2.30736357889902        0.08047805164201        0.03000909444889
C            2.58198089224086       -1.28910303404416        0.03053416618222
N            1.38526595734557       -2.01861467293186        0.00005825665319
C            0.40529644012810       -1.07779638437082       -0.00991641397125
C            0.92338165630128        0.21355517386956        0.01137139847930
C            0.11926254765926        1.38697179409657       -0.00450444595704
O            0.49230125482998        2.56400183524561       -0.00238954485685
N           -1.26943043034998        1.06027813851498       -0.03136348322514
C           -2.22754923311417        2.15475999123527       -0.05006880991084
C           -1.81666353460158       -0.18636891626352       -0.04812552265230
O           -3.01586827887520       -0.37795507889617       -0.07179979671977
N           -0.93664377558007       -1.28498672973720       -0.03757186475437
C           -1.45207653757664       -2.63179226388223       -0.05997072299588
H            3.72331183639856        1.23016903663826        1.06638635070838
H            4.01058817120468        1.05688094888449       -0.67718690630104
H            2.69962733637354        2.10778004573868       -0.08294675478036
H            3.57314281238671       -1.66419156360636        0.04802081129429
H           -1.67605696311309        3.09221162879400       -0.02570041259465
H           -2.83389182310943        2.09796268761762       -0.95401221001950
H           -2.88629225552734        2.08112873114873        0.81500420589758
H           -1.13301230238059       -3.17553037799733        0.83278999795797
H           -1.10799565928684       -3.15568596954860       -0.95541280425541
H           -2.53636720907880       -2.55947641981106       -0.07459399243970
H            1.21747745393168       -3.07470138137576       -0.01448178111283
25
 energy: 1.601024448095 xtb: 6.6.1 (8d0f1dd)
C            3.23951648224572        1.17562971703344        0.08727550900076
N            2.30884713478471        0.07680355965106        0.03058822168381
C            2.57630203184552       -1.30269547630442        0.03248269276934
N            1.37524520957012       -2.04512328475094       -0.00080642141127
C            0.40847964088362       -1.08283410611034       -0.00984152749991
C            0.92562660328289        0.21144098903295        0.01131030434652
C            0.12039430016921        1.38922751908801       -0.00433368247329
O            0.49292168148251        2.56610135823845       -0.00218177121189
N           -1.26911401376024        1.06480917721399       -0.03153410562949
C           -2.23058046448916        2.15688981841100       -0.05007482316771
C           -1.81525795672488       -0.18250685874846       -0.04856071679727
O           -3.01457141516940       -0.37423255982208       -0.07381734879798
N           -0.93520663148826       -1.27983597438163       -0.03740949649999
C           -1.44614085381903       -2.62861310361816       -0.05948193814745
H            3.72664187601508        1.23664469694554        1.06557503646214
H            4.01066302087999        1.06489504048218       -0.67812381337643
H            2.70083901120246        2.11268928440599       -0.07870251321754
H            3.57463927035410       -1.65921878172475        0.04847857229103
H           -1.68440014631192        3.09735777804923       -0.02589138867151
H           -2.83768389749062        2.09779604886370       -0.95337242610253
H           -2.88944373330990        2.08083822823394        0.81473067002652
H           -1.12393261856705       -3.17121983799615        0.83311618019471
H           -1.09793756810338       -3.15172833054976       -0.95401895894464
H           -2.52991789442480       -2.56041332520983       -0.07472641900742
H            1.19332327994474       -3.13120364130954       -0.01911678805519
25
 energy: 23.600541840762 xtb: 6.6.1 (8d0f1dd)
C            3.24431352484741        1.19356349491235        0.08527148199223
N            2.30637498530422        0.09564499845095        0.03297459024243
C            2.54798065249300       -1.24540653135527        0.03788602458794
N            1.41742604456913       -1.95279006482190        0.01520435439332
C            0.41768661555356       -1.04959083303671       -0.01066686417987
C            0.93426432822337        0.24418754019674        0.00998226602357
C            0.10500977017106        1.41557107445593       -0.00654908922538
O            0.47587211955710        2.57852706581258       -0.00578906624977
N           -1.26100549341328        1.07707581202079       -0.03271672273487
C           -2.23164290492965        2.16199044755381       -0.04706093237587
C           -1.80746628823869       -0.19255755017213       -0.05052843840709
O           -3.00524721456890       -0.36991836268094       -0.07696496167563
N           -0.92424279643597       -1.26770665559699       -0.03941723833700
C           -1.43545198754112       -2.62246564591819       -0.06278402734702
H            3.72746250008225        1.24281755272798        1.06341681943494
H            4.00999939371426        1.06687046718820       -0.67932342629394
H            2.70710091747907        2.12962995231404       -0.07853386505315
H            3.55294030122843       -1.62685512104362        0.05025945105905
H           -1.68470036925023        3.10144071608216       -0.02257499604047
H           -2.84128890477978        2.10380101427584       -0.94843835076102
H           -2.88707185734023        2.08338415745437        0.81988426313861
H           -1.10108285297357       -3.16200059605651        0.82485417399583
H           -1.07581655124081       -3.14064872440122       -0.95392469841250
H           -2.51932504164296       -2.56308696350251       -0.07748229796169
H            1.10529478267791       -3.57970109471431       -0.02448854483306
25
 energy: 20.827824359444 xtb: 6.6.1 (8d0f1dd)
C            3.24509744797865        1.20032539010673        0.08681081493536
N            2.30754168459239        0.09950859617375        0.03569129366925
C            2.54252876830712       -1.23974034873824        0.03886754745124
N            1.42038993396982       -1.95764597225261        0.00571861372005
C            0.42276520454232       -1.04632885552321       -0.00909608025982
C            0.93738164326633        0.24738057645310        0.01080564407561
C            0.10236484873985        1.42073768737801       -0.00419079691311
O            0.47410127789495        2.57968829449944        0.00154268740624
N           -1.25793433767599        1.08319267954410       -0.03188788834709
C           -2.23381500067171        2.16425032942247       -0.05005009725838
C           -1.80401675357283       -0.19181069675697       -0.04954206619760
O           -3.00134951949547       -0.36650300835236       -0.07558593514820
N           -0.92048362391804       -1.26155545460827       -0.03797567778822
C           -1.43085771047323       -2.61833949755190       -0.05927623466387
H            3.73054990326977        1.25023015634813        1.06348250781505
H            4.01013636090825        1.08127037479479       -0.68031066462670
H            2.70508668005513        2.13579654543484       -0.07391106599472
H            3.55231744805461       -1.61545099059547        0.04748154782191
H           -1.69267627524864        3.10709736591818       -0.02569666800553
H           -2.84103089140714        2.10127746809902       -0.95278147587313
H           -2.89248656534087        2.08374198224831        0.81435454562570
H           -1.09231113069293       -3.15513000481786        0.82818168479187
H           -1.06730310250220       -3.13624096935132       -0.94814918821671
H           -2.51459923632918       -2.56417690769213       -0.07421288223428
H            1.07962556491752       -3.69218098088255       -0.03619719796599
25
 energy: 19.476606816528 xtb: 6.6.1 (8d0f1dd)
C            3.24642602598390        1.20706983579084        0.08537115515098
N            2.30704585156035        0.10728502790073        0.03514348335249
C            2.54019899031941       -1.23120652076851        0.04232850522834
N            1.42165619758561       -1.95615832992441        0.01376193225410
C            0.42550592709558       -1.04100858993552       -0.00759109576904
C            0.93737072443780        0.25420262273848        0.01075682835549
C            0.10024239937975        1.42587832833842       -0.00243211005187
O            0.46811202320930        2.58534333428682        0.00578673535062
N           -1.25943609189702        1.08764356371664       -0.03139624503078
C           -2.23665178221340        2.16739140875296       -0.05077094867482
C           -1.80296509299421       -0.18802363734045       -0.04966549420368
O           -2.99954083045569       -0.36687797448146       -0.07500977619587
N           -0.91792256214872       -1.25551860326139       -0.03812923433337
C           -1.42288413020234       -2.61406544450315       -0.05912616049342
H            3.73265982972011        1.25548401987183        1.06171664298514
H            4.01083222687844        1.08886159794742       -0.68257545646444
H            2.70762561268782        2.14357694778400       -0.07488056317109
H            3.55189499343095       -1.60322081539679        0.05054163970108
H           -1.69660805022465        3.11097774931959       -0.02626826757837
H           -2.84264621133017        2.10300240641279       -0.95423458695516
H           -2.89710727059982        2.08656328721804        0.81232957845315
H           -1.07849416319212       -3.14800527221350        0.82787905059883
H           -1.05676918913200       -3.12965315260276       -0.94843859338530
H           -2.50688154870052       -2.56648997599477       -0.07241415687084
H            1.05987106455110       -3.78086943406095       -0.04276450038846
25
 energy: 18.715936070362 xtb: 6.6.1 (8d0f1dd)
C            3.24836448237423        1.21609080078984        0.08580978763134
N            2.30617139089796        0.11878814495253        0.03572767445655
C            2.53869552601484       -1.21899994910365        0.04419840678362
N            1.42349116183403       -1.94862551617481        0.01447914593319
C            0.42752308487045       -1.03266243471696       -0.00767935267086
C            0.93680418821385        0.26355919676642        0.01014134618997
C            0.09729537653113        1.43252645259193       -0.00318673618657
O            0.46047354554887        2.59295531960916        0.00533036005068
N           -1.26140647864678        1.09201969656736       -0.03179734689366
C           -2.23938057971044        2.17063264447581       -0.05101037866526
C           -1.80255485839213       -0.18448957533842       -0.04963058145542
O           -2.99828668026227       -0.36697139784026       -0.07472436740241
N           -0.91562650947300       -1.24932974608751       -0.03834283205263
C           -1.41460872323114       -2.61020249344108       -0.05849229638561
H            3.73655417243307        1.26194025814443        1.06127462781890
H            4.01171768507184        1.09661173799751       -0.68289177753870
H            2.71358018995262        2.15512123533131       -0.07351196306201
H            3.55140872816070       -1.58895494618867        0.04960014580784
H           -1.69962706636734        3.11457227982076       -0.02683666993519
H           -2.84571191045960        2.10521014945368       -0.95420122325567
H           -2.89964810151463        2.08910959200729        0.81221831407719
H           -1.06645603388558       -3.14171019274157        0.82866568052726
H           -1.04519200835105       -3.12370561714915       -0.94780316604642
H           -2.49892397518117       -2.56943711995096       -0.07149581154155
H            1.03658613774676       -3.88308698022964       -0.04402998296248
25
 energy: 18.461686678637 xtb: 6.6.1 (8d0f1dd)
C            3.24919325692320        1.22429335414235        0.08586587224765
N            2.30448911760466        0.12976248104628        0.03754319757008
C            2.53782683090592       -1.20637942952011        0.04409043259523
N            1.42702468258367       -1.93888476338498        0.01692186504792
C            0.42978701991461       -1.02359764808446       -0.00631439624553
C            0.93599581593378        0.27321499923333        0.01052407222064
C            0.09457476319271        1.43972716032073       -0.00440589610115
O            0.45366304724949        2.60110890692559        0.00366143870397
N           -1.26257962659922        1.09672824393150       -0.03264712857256
C           -2.24188470647472        2.17373081701158       -0.05041065514433
C           -1.80038877794069       -0.18126842108344       -0.05040981146998
O           -2.99580869095904       -0.36598938907832       -0.07579380810880
N           -0.91262965439625       -1.24320245427303       -0.03838501684328
C           -1.40550543616530       -2.60612743680827       -0.05886735990121
H            3.74088406964594        1.26651358466781        1.05962690168226
H            4.00974024679140        1.10363104034337       -0.68547475811725
H            2.71630232871242        2.16452895273634       -0.07172215857322
H            3.55125053079560       -1.57541606756873        0.04703720788921
H           -1.70271265433882        3.11811181256018       -0.02604397382686
H           -2.84911473086891        2.10766045278941       -0.95297464239544
H           -2.90119260560411        2.09042848825450        0.81344358672799
H           -1.05481438769816       -3.13437168333295        0.82934502723410
H           -1.03004905511846       -3.11638241402110       -0.94762286770481
H           -2.49032206836337       -2.57340226947349       -0.07411949708221
H            1.01338773314569       -3.99038235714373       -0.04306192641489
25
 energy: 18.563576682021 xtb: 6.6.1 (8d0f1dd)
C            3.24942603731404        1.23406422672865        0.08651362110319
N            2.30285399280559        0.14198374949145        0.03967516387457
C            2.53767666161603       -1.19229259387079        0.04419217659022
N            1.43114172262531       -1.92722166660661        0.01554874771257
C            0.43208270888053       -1.01365115323021       -0.00610414936810
C            0.93518487502677        0.28353801684591        0.01106465160198
C            0.09222802697428        1.44771974106964       -0.00463635167582
O            0.44905728091745        2.60979741454056        0.00379007811425
N           -1.26339062957551        1.10170240391973       -0.03293677693832
C           -2.24402799842167        2.17704454814330       -0.05102534257565
C           -1.79823642986177       -0.17821919582282       -0.04999105041815
O           -2.99363282096191       -0.36434554975606       -0.07507482837915
N           -0.90961463774974       -1.23711008358853       -0.03805212347627
C           -1.39678516232652       -2.60212665379735       -0.05767626925484
H            3.74289991665455        1.27479806367824        1.05939631714106
H            4.00871232257405        1.11274340264516       -0.68619465314364
H            2.71857277733624        2.17498229988167       -0.07063493387534
H            3.55133412592289       -1.56031338717544        0.04728562769688
H           -1.70644051420348        3.12213589309268       -0.02686964193171
H           -2.85108449486972        2.10985901196426       -0.95355651211978
H           -2.90327936755836        2.09327063455786        0.81276840674105
H           -1.04232722984383       -3.12687909327019        0.83121098777801
H           -1.01709635505277       -3.10991209143566       -0.94612591623282
H           -2.48214421889860       -2.57685003889864       -0.07330999027200
H            0.98881154226053       -4.11188210346320       -0.04908046265108
25
 energy: 18.789583882930 xtb: 6.6.1 (8d0f1dd)
C            3.25179761096217        1.24300524351556        0.08612220996247
N            2.30281131388521        0.15487884784512        0.04010802088904
C            2.53772142031809       -1.17763743657316        0.04198764435477
N            1.43496017911960       -1.91417913380837        0.01378890676850
C            0.43417884937609       -1.00262938758431       -0.00579343268684
C            0.93507932730185        0.29459453184304        0.01183409943570
C            0.09063448595691        1.45662310112964       -0.00452827739565
O            0.44786092302171        2.61883928813114        0.00397241349583
N           -1.26404261282637        1.10750852344085       -0.03309780998985
C           -2.24696415942777        2.18037894625551       -0.05153520102196
C           -1.79669911649369       -0.17452576796739       -0.04962625278326
O           -2.99226209176718       -0.36089406106501       -0.07444192267359
N           -0.90706990844254       -1.22997117749509       -0.03769212021509
C           -1.39005447758658       -2.59658808277984       -0.05703353114192
H            3.74700264616580        1.28230388678092        1.05832247143099
H            4.01023860754815        1.12024550933525       -0.68759108023544
H            2.72227294810193        2.18363738504076       -0.07197586618139
H            3.55076652044423       -1.54539936811206        0.04785291274193
H           -1.71205760104023        3.12676968971207       -0.02755226195213
H           -2.85381766559207        2.11190227633616       -0.95398064046337
H           -2.90598027285282        2.09584840954316        0.81222999563643
H           -1.03308234984776       -3.11762987781967        0.83273126229230
H           -1.00676697599042       -3.10186202910781       -0.94515914183526
H           -2.47498069530198       -2.57946980742273       -0.07327177886159
H            0.96975982839997       -4.22913637834263       -0.05199992945905
25
 energy: 19.044797672239 xtb: 6.6.1 (8d0f1dd)
C            3.25404424628503        1.25275668718961        0.08564115745572
N            2.30322746315412        0.16811872376264        0.03961758042846
C            2.53849063929432       -1.16266517796643        0.03822937479405
N            1.43954356901688       -1.90012231738603        0.01170187727747
C            0.43660335340824       -0.99132339218425       -0.00590013124164
C            0.93535234150539        0.30584916806060        0.01219854148547
C            0.08899774235535        1.46568299964052       -0.00451077770861
O            0.44624663289974        2.62832413424543        0.00417119617150
N           -1.26422125561944        1.11335252464428       -0.03334198033521
C           -2.24951441788463        2.18364747846365       -0.05156312535404
C           -1.79490071402369       -0.17123298662538       -0.04949549461840
O           -2.99064319549855       -0.35729611980233       -0.07407845796041
N           -0.90379728696345       -1.22257078573870       -0.03736212441295
C           -1.38398631263647       -2.58963000782970       -0.05691946881704
H            3.74792998742578        1.29037962967220        1.05853790533071
H            4.01210077052644        1.12818698471421       -0.68811362629691
H            2.72596360259704        2.19328916251190       -0.07430292624644
H            3.54908404995154       -1.53521719568193        0.04676302155764
H           -1.71676089537430        3.13103722598367       -0.02760954551981
H           -2.85628389863298        2.11405637415785       -0.95398311254814
H           -2.90837950948275        2.09766955080897        0.81230016484003
H           -1.02665130561770       -3.10720509990360        0.83348918091339
H           -0.99988133199137       -3.09201790742730       -0.94518298861913
H           -2.46825614872892       -2.57824760249912       -0.07322637846511
H            0.95224921404427       -4.35426549848658       -0.05110011248950
25
 energy: 19.245814899390 xtb: 6.6.1 (8d0f1dd)
C            3.25657500832032        1.26218673282994        0.08579517376041
N            2.30399198543935        0.18104564821217        0.03946934465364
C            2.53986723893852       -1.14787769627140        0.03683716883294
N            1.44435778492202       -1.88563334756765        0.01042875470413
C            0.43901617017865       -0.98025533968927       -0.00579245419264
C            0.93574445843715        0.31694215756621        0.01286540445454
C            0.08716879265055        1.47438897492985       -0.00399932811493
O            0.44371563948116        2.63769455827882        0.00424716709806
N           -1.26428861847580        1.11808674605849       -0.03350903196720
C           -2.25223051122118        2.18629556857657       -0.05187421438905
C           -1.79265027520295       -0.16873299439616       -0.04921521990368
O           -2.98871333908045       -0.35446708622737       -0.07389922507219
N           -0.89989724225656       -1.21699522706388       -0.03667712266484
C           -1.37815438351247       -2.58349851514946       -0.05649068618744
H            3.74788529210350        1.29674830091360        1.06006385632316
H            4.01371486463747        1.13498765002328       -0.68779527925944
H            2.73044854593106        2.20302975055344       -0.07607599077784
H            3.54434668247892       -1.53218362674903        0.04791574349242
H           -1.72161420217946        3.13482102132869       -0.02774994165456
H           -2.85926105291294        2.11498499384899       -0.95424043137154
H           -2.91140966690332        2.09778931067661        0.81174213247681
H           -1.01733353073285       -3.09833862588728        0.83305594375801
H           -0.99080279437708       -3.08350620782517       -0.94374770913671
H           -2.46298938901286       -2.57272494140660       -0.07263833670018
H            0.93161645221372       -4.47949360601041       -0.05147818516078
25
 energy: 19.416186656400 xtb: 6.6.1 (8d0f1dd)
C            3.25944215920777        1.27174628387682        0.08614769205633
N            2.30512611192562        0.19391367662981        0.04007556439254
C            2.54276137251467       -1.13271021312567        0.03669274363063
N            1.45092751649337       -1.87127519167688        0.00946689736474
C            0.44206289478016       -0.97032333010595       -0.00582506133973
C            0.93654082104924        0.32714394733306        0.01366206504440
C            0.08586122106267        1.48194138986987       -0.00343321900511
O            0.44053251472250        2.64625353437580        0.00387122460421
N           -1.26273782653358        1.12043153364330       -0.03361512077704
C           -2.25275982441303        2.18682084636382       -0.05197125418857
C           -1.78944551502954       -0.16736364943277       -0.04879065775996
O           -2.98600807251604       -0.35220908262378       -0.07352528876964
N           -0.89504701662856       -1.21371505311980       -0.03575299755888
C           -1.37289018072801       -2.57879294531096       -0.05601450699430
H            3.74971675252437        1.30539920276632        1.06101172392373
H            4.01658926520804        1.13544240442384       -0.68593830756636
H            2.73546303061363        2.21332078681525       -0.07710261813834
H            3.53920990913285       -1.53000434563229        0.05174409428813
H           -1.72521938864374        3.13757833412623       -0.02784766387236
H           -2.86034466226692        2.11403416377261       -0.95394042759018
H           -2.91091030643870        2.09538177449539        0.81188006989657
H           -1.00819765710447       -3.09275394516110        0.83178145446634
H           -0.98204410178202       -3.07730395921021       -0.94183530169490
H           -2.45914533618741       -2.56601185549525       -0.07234917797719
H            0.90935688060219       -4.60550230741753       -0.05154822743478
25
 energy: 19.551643417324 xtb: 6.6.1 (8d0f1dd)
C            3.26194170915417        1.28245533382271        0.08717989779926
N            2.30690770239541        0.20625048964791        0.04007056414041
C            2.54863551204567       -1.11821917817747        0.03568191577203
N            1.45934047316531       -1.85744358832744        0.00824922478646
C            0.44550947323468       -0.96222098520438       -0.00585682430476
C            0.93768862675112        0.33604092142840        0.01444033886428
C            0.08564075634120        1.48870719019550       -0.00337333881214
O            0.43852751328636        2.65397312563768        0.00305558232870
N           -1.26012458611055        1.12121372510093       -0.03306832576234
C           -2.25364429980144        2.18452887503816       -0.05152136447567
C           -1.78539324288315       -0.16697223031362       -0.04858648866883
O           -2.98238561139356       -0.35016092535815       -0.07291403415939
N           -0.89017997997368       -1.21534702081858       -0.03570470448974
C           -1.36848912571711       -2.58088234065198       -0.05639675788067
H            3.75089724462466        1.31455097552840        1.06302253994039
H            4.02101933945207        1.14388978175143       -0.68331917407660
H            2.73901260175174        2.22440222516491       -0.07686711098990
H            3.54252441731938       -1.51973612409192        0.05033363405944
H           -1.72987253989642        3.13754733929676       -0.02753877422067
H           -2.86032569285010        2.11023596213831       -0.95368198955374
H           -2.91132286418372        2.09155577533892        0.81230426493779
H           -1.00803987513043       -3.10197107904390        0.82993369231008
H           -0.98325873637775       -3.08543409638767       -0.94211715782650
H           -2.45607835607957       -2.55923082721045       -0.07221986636417
H            0.88183525061329       -4.72996844597719       -0.05144084858059
25
 energy: 19.660288477596 xtb: 6.6.1 (8d0f1dd)
C            3.26387536241971        1.28536051132466        0.08701608558122
N            2.30598568956034        0.21396403212242        0.04091922655978
C            2.55002633079832       -1.10969628625452        0.03475684430884
N            1.45994239053401       -1.84638113869920        0.00565826176486
C            0.44508582394178       -0.95524293643804       -0.00556707325411
C            0.93738476893121        0.34411894150036        0.01689214014172
C            0.08355911964626        1.49469409220309       -0.00242458668876
O            0.43462973635825        2.66048316180545        0.00187707582796
N           -1.26181629625172        1.12250362571269       -0.03177515256853
C           -2.25618114671483        2.18539042117242       -0.05137450376339
C           -1.78477208081792       -0.16570699068146       -0.04836911319586
O           -2.98101694518443       -0.35271247771764       -0.07349279303988
N           -0.88796767791927       -1.21585457477925       -0.03608761224887
C           -1.36667844674277       -2.58113798551491       -0.05706587938282
H            3.75244761990269        1.31594201643794        1.06304383761405
H            4.02319579658149        1.14190203932335       -0.68230281680464
H            2.74454056892515        2.22835631228643       -0.07903785665183
H            3.53924051610687       -1.52244697970444        0.04951133037517
H           -1.73026917390021        3.13728265000637       -0.02728313841667
H           -2.86259832759313        2.11002038257499       -0.95374997411406
H           -2.91439365277366        2.09275657058438        0.81216321827543
H           -1.01305571262183       -3.10903031555449        0.82865492531155
H           -0.98820265030208       -3.09121628916466       -0.94312612548018
H           -2.45446483928763       -2.55580814345647       -0.07242766099589
H            0.87371753137581       -4.83851185034543       -0.04937474696053
