25
 energy: 0.000000000000 xtb: 6.6.1 (8d0f1dd)
C            3.23720163006194        1.16630919979326        0.08434469647475
N            2.29877817382611        0.07527477071623        0.03981603040599
C            2.58028210190900       -1.21425402444508        0.03006176031096
N            1.43813958087363       -1.93419271955128        0.00098261760884
C            0.39035688448383       -1.05887472636071       -0.00790371836672
C            0.93510056364412        0.21347819449412        0.01709077491437
C            0.09450143893243        1.40504303904423       -0.00410947031874
O            0.49712751527797        2.54126714362870       -0.00342325688240
N           -1.25076640035757        1.06271879480407       -0.03085478223738
C           -2.21907211982101        2.15522099834493       -0.05001256985998
C           -1.81739487048744       -0.20012725993278       -0.04692818574614
O           -2.99983886758376       -0.37846417018721       -0.07008878229737
N           -0.92618586207120       -1.30210215599479       -0.03682761578324
C           -1.46982264913417       -2.64643102187190       -0.06029820460571
H            3.71247264356769        1.21471455160235        1.06488849150277
H            4.00791497605742        1.03430808813993       -0.67357694370751
H            2.69910007168542        2.09770118228144       -0.09130154882931
H            3.56654120610678       -1.63682992603973        0.04233140067262
H           -1.67107961066214        3.09322851271934       -0.02552706933167
H           -2.82428953597071        2.09428624779827       -0.95318082946668
H           -2.87644029173232        2.07745725625962        0.81450067533302
H           -1.17061996399332       -3.19584890659852        0.83242232437030
H           -1.14560257411436       -3.17511610292205       -0.95688275822323
H           -2.55549792440841       -2.55659984320617       -0.07459039797972
H            1.38130855184625       -2.94313852034425       -0.01389874181052
25
 energy: -3.060388328211 xtb: 6.6.1 (8d0f1dd)
C            3.24026689777153        1.18186047312895        0.08621753419182
N            2.30426256218217        0.08802983305186        0.03798461957790
C            2.58485590311424       -1.25103691676088        0.03023932724270
N            1.41149975993443       -1.98551619827895        0.00005181831571
C            0.39969425090545       -1.06364350569844       -0.00838721546451
C            0.93010445570645        0.22145724039789        0.01542372635966
C            0.10198652952515        1.40446909706289       -0.00444051482995
O            0.49558423028318        2.57215688692853       -0.00260138726689
N           -1.26056205435182        1.06253516255777       -0.03120879592163
C           -2.22788095212975        2.15536338186738       -0.05020991902115
C           -1.81856112820238       -0.19069592145105       -0.04780501385636
O           -3.01442238846756       -0.37534183598108       -0.07134654750888
N           -0.92916582914715       -1.29132532891102       -0.03713318079147
C           -1.45040869715051       -2.63505795562042       -0.05955044379180
H            3.72477603723832        1.23789091333763        1.06529890017187
H            4.01063212724380        1.05955380708455       -0.67684000976825
H            2.70298862681325        2.11529282414141       -0.08580445972640
H            3.56827492078227       -1.65908732842388        0.04392398587143
H           -1.67774255820002        3.09353636066064       -0.02586237378140
H           -2.83509200770895        2.09828348792503       -0.95346550913047
H           -2.88724439312249        2.08145815642629        0.81427507195614
H           -1.13037131655832       -3.17614513891493        0.83294044720775
H           -1.10535379086082       -3.15644030918214       -0.95452072309594
H           -2.53556867341244       -2.55806285385202       -0.07405948126678
H            1.30966215574819       -3.04050572932396       -0.01608595952578
25
 energy: 1.311950302675 xtb: 6.6.1 (8d0f1dd)
C            3.24212145544897        1.18679390437865        0.08726427320037
N            2.30766206785676        0.08925525956543        0.03527271644146
C            2.57998547906872       -1.28350651228501        0.03120214927252
N            1.38165611323554       -2.02761199799128       -0.00030846971373
C            0.40644082171303       -1.06523407964770       -0.00898312448774
C            0.92634068759665        0.22460919889770        0.01352750654451
C            0.10857014762941        1.39750436194783       -0.00452388626895
O            0.48471765579888        2.57859601229191       -0.00106565166278
N           -1.27128895693525        1.06739599474995       -0.03174768655832
C           -2.23626491374222        2.16110505073808       -0.05055616319101
C           -1.81684627613141       -0.17820927943182       -0.04883688548786
O           -3.01623088735232       -0.37271095556594       -0.07319802482633
N           -0.93124834469346       -1.27291101848653       -0.03750141138921
C           -1.42323642201647       -2.62125119705515       -0.05856183096462
H            3.73606065986799        1.25468305157455        1.06330381736514
H            4.01222086055847        1.08478892805629       -0.68147224019704
H            2.70166564134895        2.12186477011472       -0.07792777624914
H            3.56474824028830       -1.67372961754732        0.04656094853504
H           -1.68615104998993        3.09994667261315       -0.02631854053531
H           -2.84599135266798        2.10495956590782       -0.95303654310592
H           -2.89792659662221        2.08811213465102        0.81310648504364
H           -1.08047220553293       -3.15177118653339        0.83398630529071
H           -1.05533979164909       -3.13367133038879       -0.95172369401547
H           -2.50864501993649       -2.56951521918880       -0.07350411391044
H            1.22966665479432       -3.12046390919334       -0.01792426298225
25
 energy: 3.815526734682 xtb: 6.6.1 (8d0f1dd)
C            3.24186313006461        1.18560538948716        0.08728619107349
N            2.30885716984699        0.08659092049775        0.03378651431146
C            2.57525259191262       -1.29407221329355        0.03216052507284
N            1.37019852157125       -2.03999789645220       -0.00006202540002
C            0.40752045467393       -1.06647555148585       -0.00929531931932
C            0.92572004071275        0.22360957492043        0.01271527487496
C            0.11103768143898        1.39575851382210       -0.00432038394528
O            0.47888352295300        2.57711713705393       -0.00002011035354
N           -1.27578580382836        1.07266635880684       -0.03215064941505
C           -2.23898871902190        2.16660726100712       -0.05085597859392
C           -1.81755742143509       -0.17333234820070       -0.04953005450620
O           -3.01619493575615       -0.37343225068653       -0.07453623821767
N           -0.93239174447070       -1.26401034754237       -0.03773290194154
C           -1.41036182917713       -2.61664480334600       -0.05796709555849
H            3.73955820880280        1.25539432588645        1.06143130378892
H            4.01034508532031        1.09333223059695       -0.68457664572021
H            2.69789306281819        2.12051486762212       -0.07314196318234
H            3.56340183857432       -1.67605281840713        0.04812006834990
H           -1.68962508347133        3.10562827418282       -0.02663778027810
H           -2.84934091625074        2.10973640424898       -0.95303285750686
H           -2.90110114732838        2.09291141104314        0.81258329513785
H           -1.05812693038743       -3.14013244231112        0.83533938926524
H           -1.03275256479351       -3.12311109263647       -0.95075624574609
H           -2.49585895267045       -2.58119210019244       -0.07324681129325
H            1.19976940783757       -3.14799020244937       -0.01852560474951
25
 energy: 4.396935860963 xtb: 6.6.1 (8d0f1dd)
C            3.24153260189040        1.18468574192063        0.08723803199832
N            2.30944772591081        0.08524119252900        0.03308062761525
C            2.57358659834711       -1.29510032936573        0.03295737293635
N            1.36865440909953       -2.04104892801867        0.00025474564106
C            0.40739463198148       -1.06766418962675       -0.00949107484477
C            0.92600690809923        0.22230015606960        0.01225994721441
C            0.11206698661105        1.39582582484686       -0.00433318093188
O            0.47703086129696        2.57589454641755        0.00051234576950
N           -1.27668756683730        1.07464282806638       -0.03241170048982
C           -2.23918145457790        2.16845842121533       -0.05099429048512
C           -1.81857097046883       -0.17266786499380       -0.04984883976799
O           -3.01640000347289       -0.37442195706111       -0.07508146898305
N           -0.93303451877781       -1.26152749564652       -0.03785982836100
C           -1.40779984940599       -2.61594962595109       -0.05773904269894
H            3.74045374558546        1.25325172137110        1.06058711370382
H            4.00878162598697        1.09497248998987       -0.68586122362018
H            2.69623153469610        2.11930231583443       -0.07112018151395
H            3.56367247577594       -1.67359891076810        0.04862905906510
H           -1.69022710649791        3.10751366334449       -0.02680433459355
H           -2.84962635937358        2.11151891832048       -0.95313567917803
H           -2.90123203735008        2.09473392637262        0.81254045643832
H           -1.05395330789462       -3.13680979441118        0.83602235469010
H           -1.02842871753510       -3.12022842509298       -0.95059080030846
H           -2.49296314066442       -2.58579849226022       -0.07315533534625
H            1.19545959551157       -3.15449713093014       -0.01862117780194
25
 energy: 4.580825555875 xtb: 6.6.1 (8d0f1dd)
C            3.24137279568569        1.18413810969177        0.08722280830645
N            2.30984287132461        0.08447646092101        0.03248983357543
C            2.57280789711919       -1.29455939323683        0.03394569205612
N            1.36918798409345       -2.04007596934782        0.00061253004049
C            0.40711617989790       -1.06853813042055       -0.00970482801008
C            0.92620023972832        0.22144193042755        0.01180249285375
C            0.11287245775545        1.39606520098508       -0.00445263440017
O            0.47630604512392        2.57548702808439        0.00089270094185
N           -1.27675050336738        1.07522787906019       -0.03263392450322
C           -2.23896153144554        2.16884716766623       -0.05107173471298
C           -1.81937155130315       -0.17278826388845       -0.05001803253735
O           -3.01669655394705       -0.37488152790450       -0.07530719162157
N           -0.93355833835677       -1.26055422021211       -0.03796583160576
C           -1.40777229683078       -2.61591410702838       -0.05764451700921
H            3.74095181538274        1.25154243158732        1.06015972281998
H            4.00790048063612        1.09539986841206       -0.68653026384554
H            2.69568706360188        2.11863429012073       -0.06994950408368
H            3.56403985618347       -1.67094343140576        0.04858060746681
H           -1.69032056177854        3.10802313195141       -0.02690753666192
H           -2.84950868300990        2.11213216922596       -0.95319429709475
H           -2.90094075091576        2.09536382863027        0.81258888702866
H           -1.05375000166327       -3.13568648187160        0.83632536309376
H           -1.02814941514686       -3.11933555449683       -0.95053644648622
H           -2.49269600163723       -2.58749048786906       -0.07312263617231
H            1.19640517080565       -3.15698332691004       -0.01854736329122
25
 energy: 4.607048235982 xtb: 6.6.1 (8d0f1dd)
C            3.24139213501019        1.18402314798592        0.08725265901316
N            2.31003130926353        0.08427798503602        0.03205592060290
C            2.57259142112413       -1.29402735980502        0.03521997525636
N            1.37014528295975       -2.03883731520158        0.00093200677642
C            0.40690903150290       -1.06881554991352       -0.00991236046366
C            0.92611863566446        0.22143315284173        0.01142915836915
C            0.11340107363803        1.39625422188437       -0.00458902115379
O            0.47633449530675        2.57586657770583        0.00105831043804
N           -1.27658097493270        1.07494955834818       -0.03278486409429
C           -2.23877201924326        2.16845577449073       -0.05109882062349
C           -1.81967638472895       -0.17303443705664       -0.05004678624156
O           -3.01692247744265       -0.37476415362007       -0.07525018613963
N           -0.93382327849967       -1.26048262997507       -0.03803948048882
C           -1.40856716393889       -2.61607126019368       -0.05765268055537
H            3.74109620033233        1.25096616576732        1.06016022872979
H            4.00783712834191        1.09537577487434       -0.68663595173853
H            2.69581645995673        2.11853639961304       -0.06960489360322
H            3.56417314710263       -1.66971728585942        0.04778191934063
H           -1.69027142683712        3.10777595076455       -0.02694228024301
H           -2.84942973298952        2.11195587368911       -0.95319368311132
H           -2.90073098175158        2.09516812726735        0.81263441439246
H           -1.05476483458218       -3.13586965880977        0.83631161151977
H           -1.02915669572716       -3.11958054539506       -0.95051999062479
H           -2.49346950199775       -2.58709647685935       -0.07313180176077
H            1.19853382040424       -3.15771343540727       -0.01839950744913
25
 energy: 4.611395827352 xtb: 6.6.1 (8d0f1dd)
C            3.24145444824532        1.18413221830171        0.08731163641369
N            2.31005524745808        0.08436651402775        0.03197088426386
C            2.57260832118294       -1.29416288723366        0.03636780032036
N            1.37032663001168       -2.03855069589845        0.00106117392898
C            0.40690361504774       -1.06864725527386       -0.01003043878099
C            0.92598034330413        0.22183639085250        0.01132711912789
C            0.11349731390437        1.39628649083304       -0.00464800397161
O            0.47650569677421        2.57620606936623        0.00098836888420
N           -1.27660406919604        1.07471023042557       -0.03283101739674
C           -2.23882140572911        2.16825427815224       -0.05109945318006
C           -1.81953240902182       -0.17302989247785       -0.05001610964170
O           -3.01689669686224       -0.37457411714742       -0.07511338175178
N           -0.93377555197771       -1.26071928147827       -0.03807885800703
C           -1.40877252394710       -2.61612872596077       -0.05768798512628
H            3.74096762058136        1.25129713962541        1.06034244098117
H            4.00812985112547        1.09535145549233       -0.68640942968850
H            2.69594058296535        2.11865248772471       -0.06979457452082
H            3.56408367825603       -1.67011487377156        0.04660667402958
H           -1.69024589262199        3.10756585520108       -0.02693459088622
H           -2.84950615033871        2.11176813665869       -0.95318049100096
H           -2.90078731228005        2.09495055749157        0.81263078211736
H           -1.05503945991670       -3.13619706840703        0.83622738464021
H           -1.02944875614817       -3.11989874757144       -0.95052307104600
H           -2.49374375194972       -2.58648315066103       -0.07314647361594
H            1.19893529906886       -3.15784252609947       -0.01830648994540
