25
 energy: 0.000000000000 xtb: 6.6.1 (8d0f1dd)
C            3.23720163006194        1.16630919979326        0.08434469647475
N            2.29877817382611        0.07527477071623        0.03981603040599
C            2.58028210190900       -1.21425402444508        0.03006176031096
N            1.43813958087363       -1.93419271955128        0.00098261760884
C            0.39035688448383       -1.05887472636071       -0.00790371836672
C            0.93510056364412        0.21347819449412        0.01709077491437
C            0.09450143893243        1.40504303904423       -0.00410947031874
O            0.49712751527797        2.54126714362870       -0.00342325688240
N           -1.25076640035757        1.06271879480407       -0.03085478223738
C           -2.21907211982101        2.15522099834493       -0.05001256985998
C           -1.81739487048744       -0.20012725993278       -0.04692818574614
O           -2.99983886758376       -0.37846417018721       -0.07008878229737
N           -0.92618586207120       -1.30210215599479       -0.03682761578324
C           -1.46982264913417       -2.64643102187190       -0.06029820460571
H            3.71247264356769        1.21471455160235        1.06488849150277
H            4.00791497605742        1.03430808813993       -0.67357694370751
H            2.69910007168542        2.09770118228144       -0.09130154882931
H            3.56654120610678       -1.63682992603973        0.04233140067262
H           -1.67107961066214        3.09322851271934       -0.02552706933167
H           -2.82428953597071        2.09428624779827       -0.95318082946668
H           -2.87644029173232        2.07745725625962        0.81450067533302
H           -1.17061996399332       -3.19584890659852        0.83242232437030
H           -1.14560257411436       -3.17511610292205       -0.95688275822323
H           -2.55549792440841       -2.55659984320617       -0.07459039797972
H            1.38130855184625       -2.94313852034425       -0.01389874181052
25
 energy: -3.477159724485 xtb: 6.6.1 (8d0f1dd)
C            3.24791664627047        1.17628423116285        0.08724155899256
N            2.30476029245754        0.09805734994009        0.03880175809038
C            2.60008330559189       -1.22702987919904        0.03294721559420
N            1.42792290888607       -1.93699561037308        0.00410320453875
C            0.38284371257733       -1.05649311222679       -0.00847569950658
C            0.92316430229160        0.21846615473863        0.01416344263792
C            0.09025916186002        1.38528311629764       -0.00926033675114
O            0.50453529306244        2.54668640718815       -0.00978286497491
N           -1.28655369731005        1.04726302584206       -0.03615469631800
C           -2.20537796660380        2.17491005755797       -0.04019766691769
C           -1.89918742202853       -0.20410667789061       -0.07494131804422
O           -3.09965852245958       -0.40302619951058       -0.10590943408417
N           -0.96021888299147       -1.29824453064144       -0.04254668404419
C           -1.45427304309909       -2.65921171261164       -0.05653390939254
H            3.72972891586081        1.22005902522207        1.06806828158691
H            4.01766584131546        1.03897078040517       -0.67460633061463
H            2.70881531997736        2.10479456562429       -0.08784944512734
H            3.58350640040650       -1.64609084555900        0.04651118601924
H           -1.62850472665780        3.10016210236091       -0.03053887643273
H           -2.82067380233466        2.12131965928985       -0.93522890118814
H           -2.84298231284046        2.11800460390145        0.83995164604587
H           -1.13462917234320       -3.20584072036150        0.83474356173083
H           -1.11435639527590       -3.19080582069786       -0.94888920182743
H           -2.53912200265833       -2.59138535149888       -0.06770096478191
H            1.37655051398158       -2.94200201678873       -0.01088162908374
25
 energy: 3.007018278485 xtb: 6.6.1 (8d0f1dd)
C            3.25798282007319        1.18089404564826        0.09126361996649
N            2.30067609984214        0.11893577861720        0.03698764461067
C            2.60674302160098       -1.23488379067950        0.03950723475431
N            1.40901965624367       -1.93338554978918        0.00952946714445
C            0.36447747711643       -1.05471859650507       -0.00972649908730
C            0.90296243150287        0.22059647655047        0.00937388388737
C            0.07649052075152        1.35250253983634       -0.01904252826027
O            0.49370217066012        2.52829255395549       -0.02418684863379
N           -1.33972314898648        1.02704301853238       -0.04502815325396
C           -2.18393002317935        2.21240670148165       -0.02354328831238
C           -2.01038662042390       -0.20738041510662       -0.11728542015111
O           -3.21030076989322       -0.44245164789557       -0.17524277454634
N           -1.00475827281570       -1.29105884664965       -0.05288182751140
C           -1.42348990479071       -2.68051088299114       -0.05136421322916
H            3.75225798788553        1.22073621105769        1.06942804948528
H            4.02841008161567        1.04184868377300       -0.67366980580198
H            2.72870009941860        2.11472356159361       -0.07974303852597
H            3.59008732357513       -1.64570293334275        0.05584773058238
H           -1.55566432833024        3.11149833386591       -0.04439361429611
H           -2.82829197067952        2.18202626774797       -0.89811463759110
H           -2.78408258509781        2.20483947008809        0.88763231891167
H           -1.06743653159884       -3.21688918799926        0.83815328070402
H           -1.05918087051699       -3.21625339013408       -0.93614263949676
H           -2.50992298510143       -2.66644086556663       -0.05506212817476
H            1.37787298906451       -2.93763893391659       -0.00526191702697
25
 energy: 12.212585111847 xtb: 6.6.1 (8d0f1dd)
C            3.26059652987103        1.17802309534640        0.09639985622530
N            2.28828063016241        0.12801299031034        0.03649385195448
C            2.59644815286637       -1.23641910391545        0.04827957292940
N            1.39175416305526       -1.93057304870923        0.01443217634999
C            0.34362091116728       -1.05847860031838       -0.01495165510778
C            0.88367246392671        0.21788293334873        0.00248678563905
C            0.05546169983121        1.33240616371762       -0.03528428886398
O            0.46881319028887        2.51160314357100       -0.04390229655240
N           -1.39017044753937        1.01479529981822       -0.05895403491864
C           -2.16555584432773        2.25238360227651       -0.00640456743711
C           -2.10054626385080       -0.20790203304116       -0.15835791928843
O           -3.28833095474062       -0.47863723161527       -0.24296221903068
N           -1.03901058127734       -1.28950317929379       -0.06728228253087
C           -1.38927652297840       -2.70394361389455       -0.04778110746213
H            3.76432922747231        1.21069702009879        1.07165463874561
H            4.03139568779242        1.03737611258360       -0.66996952575832
H            2.74839831718466        2.12297103886662       -0.06888697448287
H            3.58349627069697       -1.63823733519079        0.06994285364531
H           -1.48266253876594        3.11799407276110       -0.06636977025865
H           -2.85127429707021        2.25603515357851       -0.85094840047534
H           -2.71432776508577        2.30468594748431        0.94257006607640
H           -0.99303178044536       -3.21892889261132        0.84231725217331
H           -0.99993356260111       -3.23871796227023       -0.92550602276256
H           -2.47656363601210       -2.75785616604344       -0.04169956581950
H            1.38663161831546       -2.93664080468608        0.00171747315770
25
 energy: 17.979512175554 xtb: 6.6.1 (8d0f1dd)
C            3.25637261846702        1.17058813545663        0.10198984142563
N            2.27401552980096        0.12723383990341        0.03729727744699
C            2.57920971756665       -1.23333744505503        0.05635069242392
N            1.38122297070289       -1.93018071551415        0.01702732232585
C            0.32751125938134       -1.06484239999645       -0.02274919221719
C            0.87013935514888        0.21269404027302       -0.00481488255764
C            0.03911074259562        1.32724703131094       -0.05302624684819
O            0.45262343290677        2.50070893341406       -0.06590719138715
N           -1.42508210127682        1.01471347289122       -0.07327748530153
C           -2.15530272980755        2.28066419836779        0.00596199560225
C           -2.15319543154480       -0.20172023675670       -0.18496187976083
O           -3.32515786721747       -0.49978668523758       -0.28545010224534
N           -1.05592192738570       -1.29281598041037       -0.08077295052722
C           -1.36184928836517       -2.72025966330519       -0.04699171765809
H            3.76298513513465        1.19350959328138        1.07600594838301
H            4.02642953068552        1.02758829326545       -0.66504299904386
H            2.75943872393355        2.12529036485724       -0.05805143304273
H            3.57086836393476       -1.62766324233315        0.08490457809450
H           -1.44325263020120        3.11969102977118       -0.09086209884109
H           -2.87929850820292        2.31411789785457       -0.80545729168138
H           -2.64954682107431        2.37390092582674        0.98411811112143
H           -0.93721681990102       -3.21169614626943        0.84479918358219
H           -0.95624452825695       -3.25045888935527       -0.92077891828227
H           -2.44447317299263       -2.82824115107597       -0.03109667880757
H            1.39882911390407       -2.93791659899230        0.00782001394358
25
 energy: 19.278252600801 xtb: 6.6.1 (8d0f1dd)
C            3.24921490885915        1.16308100660734        0.10638847482274
N            2.26295771049496        0.12177864869605        0.03859934556913
C            2.56417223082918       -1.22778025996573        0.06195624448799
N            1.37784775860069       -1.93089584550701        0.01778518114986
C            0.31913227637850       -1.07000560377646       -0.02878722412826
C            0.86330244228051        0.20821811508145       -0.00994255311269
C            0.03353005589503        1.32963341101506       -0.06524958475726
O            0.45144203819110        2.49468290825757       -0.08463186315348
N           -1.43980885156694        1.02158194594333       -0.08271653048740
C           -2.15304840533527        2.29224391665736        0.01261994559782
C           -2.16938478351737       -0.19017764327557       -0.19367133657546
O           -3.32850512190777       -0.50510770646630       -0.30277669226818
N           -1.05632680547477       -1.29818537235666       -0.08858953015124
C           -1.34727399514318       -2.72636725677582       -0.04824864266823
H            3.75409399730464        1.17723601799235        1.08056885228405
H            4.01791786384215        1.01818542090275       -0.66099544104093
H            2.76039280187209        2.12241193860103       -0.04994707356021
H            3.55904113055819       -1.61796147189968        0.09588335731258
H           -1.43903918472441        3.11841945338266       -0.11441630886498
H           -2.90310174851426        2.34108278592246       -0.77026785320792
H           -2.60406506635590        2.40076863745140        1.00500837209699
H           -0.91106561150262       -3.20195282311683        0.84411324009546
H           -0.93602746953004       -3.25153707258209       -0.92144082613334
H           -2.42212146506593       -2.86136768936235       -0.02540839013217
H            1.40893796146837       -2.93895685925424        0.01120073297242
25
 energy: 18.942349102903 xtb: 6.6.1 (8d0f1dd)
C            3.24360314820563        1.15952896795838        0.10978053001502
N            2.25754541594961        0.11806288747032        0.04018716590389
C            2.55751254679011       -1.22315035867916        0.06627219145532
N            1.37853536070724       -1.93166968113163        0.01828829597748
C            0.31675837124776       -1.07229775260778       -0.03159155370577
C            0.86057139025647        0.20651191890856       -0.01270290341665
C            0.03409101754916        1.33149933208205       -0.07147864258297
O            0.45368469917744        2.49380252371347       -0.09674396846378
N           -1.44262184993696        1.02573915362365       -0.08875474550963
C           -2.15348939887897        2.29385474647267        0.01597587912854
C           -2.16897206494425       -0.17908199810228       -0.19491891905022
O           -3.32214552145039       -0.50437560179335       -0.30792420348923
N           -1.04983691320577       -1.30321967636122       -0.09228060768940
C           -1.34330913261314       -2.72738612312145       -0.05041984858336
H            3.74574396315314        1.16840940698220        1.08469279690809
H            4.01151291913739        1.01376632565315       -0.65761408296438
H            2.75577295099692        2.11884501232535       -0.04487260006293
H            3.55334703776007       -1.61246511202140        0.10224984457354
H           -1.44161910346855        3.11561254108169       -0.13993248901294
H           -2.92457259836536        2.34316608930116       -0.74398928892226
H           -2.57318403010588        2.41038021646376        1.01867683113903
H           -0.90445131784770       -3.19766218311551        0.84122825820157
H           -0.93214032890509       -3.25017334507924       -0.92458538895949
H           -2.41390351460338       -2.86963891460109       -0.02447035004388
H            1.41378162133066       -2.93902977325024        0.01196169530172
25
 energy: 18.761604240395 xtb: 6.6.1 (8d0f1dd)
C            3.24059119566554        1.15898747797597        0.11233084374087
N            2.25586231788229        0.11661336759285        0.04180141258551
C            2.55677815322837       -1.22074333997991        0.07055899188271
N            1.38026142463267       -1.93247223605719        0.01946829841328
C            0.31671710467994       -1.07330706044422       -0.03277699381522
C            0.85958847087848        0.20627815187792       -0.01412839200844
C            0.03610019673340        1.33131645496386       -0.07435118526868
O            0.45445202926849        2.49492982401928       -0.10361438139333
N           -1.44255513923203        1.02657095084559       -0.09373142719756
C           -2.15309168611406        2.29391532287051        0.01788622886424
C           -2.16769945469869       -0.16922373422831       -0.19774586002668
O           -3.31848648770049       -0.50235136349488       -0.31037708767117
N           -1.04352638953521       -1.30752174902597       -0.09544252994721
C           -1.34319956343740       -2.72841784704150       -0.05239417475619
H            3.74114679613894        1.16579990496564        1.08770120155815
H            4.00843708451725        1.01338066905301       -0.65485605431069
H            2.75109848488752        2.11706566911040       -0.04180861506005
H            3.55241830944024       -1.61077534149242        0.10591192697175
H           -1.44589209205673        3.11480837087258       -0.16216328363265
H           -2.94289625449654        2.33688859685496       -0.72207866985464
H           -2.54746185347673        2.41655603312437        1.02886272167397
H           -0.90400324587553       -3.19882678217814        0.83861879861793
H           -0.93425873328375       -3.25201163374565       -0.92740679007350
H           -2.41329547523198       -2.86926595671034       -0.02526146885856
H            1.41512947512212       -2.93916514755633        0.01203038571347
25
 energy: 18.956127382381 xtb: 6.6.1 (8d0f1dd)
C            3.23954606288536        1.16050662858489        0.11431213178992
N            2.25678978895203        0.11639899176152        0.04371657263531
C            2.56009822675432       -1.21998263695032        0.07531661053659
N            1.38314712126816       -1.93331760061988        0.02127917923827
C            0.31838641388216       -1.07426363328026       -0.03294394759097
C            0.86014626355929        0.20646627986896       -0.01440103811644
C            0.03859034723236        1.33002616310436       -0.07508889666082
O            0.45348290965634        2.49664794197580       -0.10607427017933
N           -1.44186129414330        1.02543156694106       -0.09767920417863
C           -2.15224697262431        2.29357823751859        0.01853986447234
C           -2.16851672023480       -0.15948294949461       -0.20168372955786
O           -3.31819876262080       -0.49940116958883       -0.31123984104963
N           -1.03740757258174       -1.31210581292776       -0.09865987640783
C           -1.34502195699924       -2.73029811400223       -0.05454775450306
H            3.73966345126040        1.16798414929416        1.08978258219390
H            4.00782743519467        1.01608821268974       -0.65261066258638
H            2.74711863808007        2.11697994713323       -0.04013151131618
H            3.55502453249531       -1.61149257968745        0.10730232087648
H           -1.45207331810205        3.11514649233935       -0.18312430105623
H           -2.95885535424439        2.32564750175731       -0.70207551667368
H           -2.52294088870398        2.42178735532057        1.03641697729393
H           -0.90825768504359       -3.20431122745738        0.83619416527832
H           -0.94043771488906       -3.25725685431883       -0.93014447648349
H           -2.41674655048201       -2.86207342138253       -0.02722546400959
H            1.41495826738494       -2.93967486640737        0.01180398220236
25
 energy: 19.576061383797 xtb: 6.6.1 (8d0f1dd)
C            3.24033194434408        1.16254496131079        0.11496705486733
N            2.25893345706442        0.11692065650546        0.04514023187434
C            2.56435199088137       -1.22057036231160        0.07823581125418
N            1.38582295332093       -1.93371337143565        0.02259405580186
C            0.32051810143057       -1.07531742912535       -0.03245149502864
C            0.86165502642970        0.20631110598681       -0.01354118136639
C            0.03996258590754        1.32868832040962       -0.07403426040589
O            0.45184663236646        2.49712519390442       -0.10344965436854
N           -1.44204056791873        1.02372718797027       -0.09870237296313
C           -2.15173393832902        2.29359863857624        0.01773128865782
C           -2.17263184779435       -0.15450326604541       -0.20398963317515
O           -3.32183893103143       -0.49772557763038       -0.31095904021280
N           -1.03436613475463       -1.31511837226295       -0.10037377255701
C           -1.34673072391798       -2.73221888916843       -0.05591325008862
H            3.74104098884398        1.17241647972655        1.09024627794462
H            4.00914455881013        1.01938051713825       -0.65182491775652
H            2.74596609702579        2.11814267431075       -0.04029000338552
H            3.55889309320841       -1.61280360179048        0.10577696805182
H           -1.45557128235003        3.11559835396196       -0.19399551288008
H           -2.96596519122867        2.31801731396498       -0.69313917445893
H           -2.51036610894538        2.42581607416526        1.03883361728621
H           -0.91342212111253       -3.21013960321315        0.83509782108140
H           -0.94566391515935       -3.26247642397336       -0.93145815141848
H           -2.42077750803178       -2.85442009206105       -0.02912937872646
H            1.41485550887664       -2.94025188674152        0.01166256811988
25
 energy: 20.309088835567 xtb: 6.6.1 (8d0f1dd)
C            3.24139615264406        1.16394861420934        0.11486718612198
N            2.26066322711187        0.11736171780771        0.04610266790617
C            2.56742681100730       -1.22120393438507        0.07965927775702
N            1.38802320465706       -1.93385015191753        0.02311489231186
C            0.32232836672719       -1.07649832555428       -0.03195879401260
C            0.86308006218066        0.20572276081178       -0.01231386416325
C            0.04049507842538        1.32778426524142       -0.07215788901870
O            0.45078404362064        2.49653474473106       -0.09895692922564
N           -1.44295218867105        1.02258000782173       -0.09794666253602
C           -2.15165485503229        2.29402685048540        0.01641147498328
C           -2.17787850330075       -0.15244910389492       -0.20433514699660
O           -3.32641225642517       -0.49728131467105       -0.31019077339417
N           -1.03285483420785       -1.31701909614010       -0.10075777945313
C           -1.34757130925344       -2.73369760866575       -0.05650615964135
H            3.74277109884642        1.17610499513513        1.08995313630596
H            4.01058078183841        1.02136688923389       -0.65184117612291
H            2.74632216739833        2.11926222841283       -0.04127232305319
H            3.56210829631024       -1.61318250208311        0.10267432112585
H           -1.45664698992595        3.11582400330213       -0.19812761242304
H           -2.96755579413132        2.31516188516030       -0.69163595342074
H           -2.50647599069405        2.42889861671848        1.03801422650246
H           -0.91750073449154       -3.21441950800759        0.83499012946774
H           -0.94851723440681       -3.26602374269891       -0.93171515164518
H           -2.42335785591278       -2.84922357141632       -0.03067006741751
H            1.41561392362153       -2.94070011746448        0.01163286618904
25
 energy: 20.972506645371 xtb: 6.6.1 (8d0f1dd)
C            3.24202576032225        1.16450732479537        0.11458170378664
N            2.26143875793708        0.11753848797537        0.04677645939136
C            2.56899726230499       -1.22133415310289        0.08042861155424
N            1.38974489412945       -1.93396800225567        0.02292740478682
C            0.32354904116433       -1.07764596214791       -0.03178269900207
C            0.86388568249798        0.20498076651234       -0.01132324580132
C            0.04057153301914        1.32724039954065       -0.07029661030293
O            0.45045287069956        2.49556801798835       -0.09486453398224
N           -1.44426152030820        1.02215150011617       -0.09674713964583
C           -2.15184306241075        2.29474673367280        0.01522499113272
C           -2.18278253722412       -0.15131163491921       -0.20353027539727
O           -3.33033013796758       -0.49761502249820       -0.30922503542290
N           -1.03171014165482       -1.31833115209884       -0.10037639681758
C           -1.34762037252608       -2.73471640214507       -0.05657225403744
H            3.74367151883146        1.17807034612018        1.08960951116479
H            4.01141430209496        1.02169396998673       -0.65197862517346
H            2.74705974540905        2.11982084362321       -0.04234513521140
H            3.56418397342828       -1.61240560608182        0.09917261151254
H           -1.45601384354249        3.11586364959798       -0.19923318597070
H           -2.96697667308430        2.31555772590837       -0.69358780803359
H           -2.50685621718233        2.43151519515346        1.03646498931787
H           -0.91997004853967       -3.21705982191629        0.83539407597197
H           -0.94924139354325       -3.26792994499179       -0.93142686544822
H           -2.42428905082406       -2.84688569503660       -0.03186377303548
H            1.41711432490521       -2.94102296162460        0.01160712081085
25
 energy: 21.686567089664 xtb: 6.6.1 (8d0f1dd)
C            3.24235212231728        1.16455944668506        0.11410749575626
N            2.26160977306509        0.11753707319543        0.04741394678874
C            2.56992819107040       -1.22100022462317        0.08133574813670
N            1.39155003249475       -1.93425027638065        0.02220120929969
C            0.32456559113324       -1.07895613559834       -0.03182256930600
C            0.86426651925051        0.20410394839771       -0.01045384029312
C            0.04053161895028        1.32676172431387       -0.06806675453371
O            0.45059124124089        2.49448243193750       -0.09068367687122
N           -1.44594335929650        1.02223646171127       -0.09521326806189
C           -2.15211998233914        2.29587152752722        0.01409837958440
C           -2.18801880746841       -0.14959498478478       -0.20207978953181
O           -3.33413345668357       -0.49821990553404       -0.30773726806942
N           -1.03012828369859       -1.31973579252899       -0.09944921864360
C           -1.34725501027015       -2.73569241708324       -0.05622058161508
H            3.74397155983809        1.17911451158887        1.08916700026906
H            4.01185298641987        1.02080386325616       -0.65219822139988
H            2.74789966397283        2.11995649831067       -0.04373370637263
H            3.56590004142332       -1.61065932437200        0.09458925254810
H           -1.45475688025338        3.11612122960251       -0.19799269675482
H           -2.96432306384232        2.31797618235763       -0.69804079208064
H           -2.51036814102389        2.43351546200923        1.03368730083568
H           -0.92185714294772       -3.21930541106652        0.83626034064327
H           -0.94886253548674       -3.26932813005977       -0.93069591202976
H           -2.42437858121805       -2.84587945664969       -0.03297853152501
H            1.41934057128804       -2.94138970003985        0.01154004937402
25
 energy: 22.483966769337 xtb: 6.6.1 (8d0f1dd)
C            3.24234968249384        1.16420059710615        0.11362655335894
N            2.26118095935997        0.11740633948748        0.04811832522123
C            2.57038926537703       -1.22020068156360        0.08297888256441
N            1.39338668217546       -1.93476986404523        0.02111595986444
C            0.32525149634632       -1.08044156508331       -0.03209642810275
C            0.86409508979365        0.20316478092343       -0.00995271584186
C            0.04034004291422        1.32613657765508       -0.06614586042474
O            0.45092279325575        2.49342379083422       -0.08727849464749
N           -1.44816152875734        1.02269577214781       -0.09389965481325
C           -2.15241972514607        2.29751872819359        0.01323249618114
C           -2.19379495024660       -0.14665837777767       -0.20056612540622
O           -3.33803076574223       -0.49903091812771       -0.30608155005066
N           -1.02813069875282       -1.32147047661736       -0.09823878161289
C           -1.34640417696941       -2.73686858273391       -0.05557591434110
H            3.74368246750930        1.17933603845022        1.08878942281521
H            4.01188984043413        1.01891370759507       -0.65232598383125
H            2.74868907106701        2.11972586330934       -0.04523134541644
H            3.56731566816197       -1.60811967731068        0.08917827510944
H           -1.45218988793382        3.11660803830519       -0.19495275275704
H           -2.96056629913005        2.32221555007557       -0.70420813150044
H           -2.51594205881292        2.43535464391447        1.03118739834739
H           -0.92288070861300       -3.22138339769801        0.83740951574309
H           -0.94743115818317       -3.27061263862467       -0.92968595770491
H           -2.42354043839301       -2.84625214974373       -0.03391146917884
H            1.42221400572791       -2.94186349649964        0.01154823257189
25
 energy: 23.272341596655 xtb: 6.6.1 (8d0f1dd)
C            3.24216216091186        1.16364928803399        0.11298293096120
N            2.26048327277457        0.11714569083649        0.04875746180120
C            2.57069760140591       -1.21920672114761        0.08561260941415
N            1.39506913058472       -1.93550067622216        0.02011866418635
C            0.32561678761765       -1.08189214921972       -0.03240063848950
C            0.86358668443970        0.20234055002919       -0.00983693983283
C            0.04024498539512        1.32538219018289       -0.06473673288269
O            0.45139334364086        2.49265704517121       -0.08532839136112
N           -1.45038520639356        1.02350075091789       -0.09282768856626
C           -2.15255959474107        2.29948851895180        0.01287693126593
C           -2.19928146680070       -0.14215203886640       -0.19953169196190
O           -3.34147995943672       -0.49932436569587       -0.30452849065794
N           -1.02585933898068       -1.32350052410359       -0.09698804270949
C           -1.34536634164567       -2.73821633629512       -0.05466829259600
H            3.74321794975654        1.17913638101600        1.08819778136519
H            4.01160711784073        1.01668937534489       -0.65268165654868
H            2.74920901935972        2.11925144459373       -0.04683085862740
H            3.56843186143558       -1.60562807967022        0.08332751867391
H           -1.44960504904404        3.11775400628935       -0.18842851316466
H           -2.95461636713224        2.32769077363375       -0.71168251360953
H           -2.52424158746112        2.43494899726807        1.02779995297834
H           -0.92308301087293       -3.22335042456769        0.83868360237666
H           -0.94579345511257       -3.27205967652287       -0.92851240156483
H           -2.42229253392418       -2.84734123981872       -0.03419517847847
H            1.42505866431864       -2.94243417796715        0.01185447417568
25
 energy: 23.896461481974 xtb: 6.6.1 (8d0f1dd)
C            3.24187344176863        1.16330147204960        0.11270423270217
N            2.25990424444482        0.11691559706956        0.04923804512411
C            2.57097520853218       -1.21850656491007        0.08889327365941
N            1.39603359019754       -1.93613550077668        0.01997593330753
C            0.32553606136079       -1.08293493918713       -0.03264644125046
C            0.86299933011008        0.20183457740191       -0.01029555132847
C            0.04022112051024        1.32454418464088       -0.06524164884041
O            0.45149290101506        2.49223990039109       -0.08640512920672
N           -1.45221721820574        1.02407403572004       -0.09293485294793
C           -2.15249248579911        2.30118718947316        0.01326613737616
C           -2.20353553438895       -0.13739574703832       -0.19992317399710
O           -3.34410326429412       -0.49906955416540       -0.30435083927839
N           -1.02429557776139       -1.32539268674935       -0.09658028516184
C           -1.34428115800249       -2.73960194683587       -0.05412891305159
H            3.74289727430684        1.17883729730900        1.08785875276348
H            4.01115809407401        1.01548621344923       -0.65291362272462
H            2.74917528305222        2.11889745845448       -0.04753390866625
H            3.56897910610335       -1.60433903577667        0.07952676625056
H           -1.44673199175755        3.11891203135137       -0.18261597952320
H           -2.95070659778995        2.33230380852894       -0.71625997915289
H           -2.53001631416364        2.43405239685531        1.02717560449608
H           -0.92201111638852       -3.22483785606007        0.83922864124736
H           -0.94468409098857       -3.27362015970210       -0.92798476006117
H           -2.42092016075870       -2.84881297610613       -0.03365288784744
H            1.42696452275907       -2.94291059321471        0.01263448225892
25
 energy: 24.302260204449 xtb: 6.6.1 (8d0f1dd)
C            3.24174778749024        1.16337307844965        0.11239796456361
N            2.25995699208784        0.11665858093912        0.04932559232524
C            2.57157288130814       -1.21845163515153        0.09251660352008
N            1.39640326175640       -1.93655063782409        0.02108504781032
C            0.32540738570297       -1.08348439735564       -0.03252783525715
C            0.86290880092533        0.20164921905526       -0.01091248666666
C            0.04066538029506        1.32392625318034       -0.06695316710848
O            0.45150750918623        2.49222727221905       -0.08985102586998
N           -1.45295078563917        1.02449571909176       -0.09343692217641
C           -2.15214921799785        2.30225237318281        0.01423126999640
C           -2.20604207531234       -0.13275912967966       -0.20147983273234
O           -3.34560408624005       -0.49753126536829       -0.30526126330602
N           -1.02337094641873       -1.32700900840371       -0.09691743252307
C           -1.34358866581974       -2.74082094606755       -0.05386885074549
H            3.74329005219058        1.17896950928591        1.08724868079542
H            4.01075300756581        1.01593444055014       -0.65358802247719
H            2.74857860875323        2.11880756789788       -0.04761455910936
H            3.56918809381611       -1.60493315981012        0.07739690497970
H           -1.44576432029275        3.12052342489227       -0.17519223033943
H           -2.94659647025131        2.33569947176380       -0.71873289257751
H           -2.53531034764419        2.43010709504178        1.02617126662844
H           -0.92039345751129       -3.22603549800210        0.83905526425144
H           -0.94524487724119       -3.27533804518169       -0.92811098128616
H           -2.42024086295023       -2.84943603161916       -0.03199784432226
H            1.42749102017704       -2.94324564891416        0.01405064777419
25
 energy: 24.236420666314 xtb: 6.6.1 (8d0f1dd)
C            3.24178951970581        1.16362716202267        0.11265423516596
N            2.26026756858712        0.11670154270883        0.04909304050269
C            2.57159074475776       -1.21883563622626        0.09265781971342
N            1.39598359179597       -1.93630233624522        0.02196514141508
C            0.32533064236266       -1.08324737518584       -0.03237697666101
C            0.86316763197289        0.20175511442529       -0.01105394942844
C            0.04076448638229        1.32404794088844       -0.06818965480790
O            0.45132720476053        2.49223349932950       -0.09156229938813
N           -1.45263572404411        1.02420124041113       -0.09393097440847
C           -2.15208416429857        2.30187542522599        0.01453263747590
C           -2.20565431774586       -0.13353398648366       -0.20214614060245
O           -3.34556152149341       -0.49730749966100       -0.30628693726872
N           -1.02403614386244       -1.32677044283002       -0.09749846167221
C           -1.34355392737784       -2.74077618812810       -0.05419905703498
H            3.74363607083267        1.17903160858777        1.08738542407548
H            4.01077028453600        1.01703167711640       -0.65358508485317
H            2.74830973422844        2.11903614253580       -0.04684885101378
H            3.56893233988653       -1.60590567084715        0.07872306613611
H           -1.44549076188165        3.12031614677587       -0.17622707389830
H           -2.94827845528099        2.33515087525996       -0.71677436287636
H           -2.53339180958393        2.43027558751062        1.02800581035003
H           -0.91964036340257       -3.22578038220057        0.83839794294408
H           -0.94594002328168       -3.27530710623177       -0.92874089046946
H           -2.42028558025960       -2.84939273135983       -0.03139002401135
H            1.42689764064009       -2.94309600522676        0.01442951676328
