  25
        -42.17447938
 C          3.2119545051        0.9422392386        0.0264624505
 N          2.1161484190        0.0114907372        0.0399133241
 C          2.1900183268       -1.3176583984        0.0523612299
 N          0.9494941311       -1.8465499364        0.0157746405
 C          0.0574467164       -0.8180347449       -0.0240306731
 C          0.7861862695        0.3600466715       -0.0055383821
 C          0.1321348697        1.6493535723       -0.0313884073
 O          0.6564882692        2.7365586622       -0.0025859217
 N         -1.2749475160        1.4830462686       -0.0974829864
 C         -2.0188884579        2.7309057420       -0.1557446803
 C         -1.9685168681        0.3511246661       -0.1123170249
 O         -1.3980422504       -3.1092025215        0.4530740446
 N         -1.2964263708       -0.8222518050       -0.0645459323
 C         -2.0427638096       -2.0757684642       -0.2143048757
 H          4.0230543026        0.5792345957        0.6546397252
 H          3.5824666017        1.0717683038       -0.9924879172
 H          2.8605945658        1.9084131708        0.3869561908
 H          3.0960520817       -1.8884404829        0.0916455994
 H         -1.5534249304        3.3897085897       -0.8886506844
 H         -3.0471546351        2.5169760539       -0.4293894275
 H         -1.9867320970        3.2276713684        0.8143322487
 H         -2.0719313383       -2.3329271608       -1.2822359469
 H         -3.0615804822       -1.8881733747        0.1355001174
 H         -1.7588314688       -3.2402625208        1.3390629560
 H          0.6782045610       -2.8244983317        0.0326581979
