25
 energy: 46.455730016750 xtb: 6.6.1 (8d0f1dd)
C            3.41356145018070        1.66814988297228        0.12536166569154
N            2.70407584018754        0.38903679117449        0.01935104997452
C            3.13078483118250       -0.87598424436481        0.07183050445833
N            2.09705735538039       -1.76082655958421        0.03499880254718
C            0.91237894736136       -1.03461713775790       -0.03827299141538
C            1.34164776030440        0.30976776443552       -0.06532158531882
C            0.39838290445130        1.38032547665377       -0.12340432993667
O            0.68960643138622        2.57064426571358       -0.16831496455233
N           -0.87154519161770        0.87436488341973       -0.11573116411894
C           -1.99090727964734        1.79693313198380       -0.06110168582918
C           -1.29044024988455       -0.47992745193922       -0.06079968228966
O           -2.49335013941033       -0.59790074598732       -0.01043983501832
N           -0.33573572300493       -1.47053796552750       -0.05319048491673
C           -3.60492037416729       -3.31754483052067       -0.10359923664385
H            4.30329951512816        1.59078497076579        0.74091527248614
H            3.74011141174842        2.06921802988799       -0.83522010276414
H            2.74253209967993        2.43337766749946        0.51191333065001
H            4.14409159191070       -1.20088019313872        0.15399410385052
H           -1.60806517848790        2.81653053478533       -0.04274057247658
H           -2.64619065930705        1.61806873003576       -0.91813872073357
H           -2.56924882554731        1.59911020685842        0.84684988214744
H           -3.70021530447375       -3.81916923270126        0.82467700395450
H           -3.65309692590662       -3.86429978188426       -1.00889896723797
H           -3.74018627151077       -2.25761805133611       -0.12851303435724
H            2.16273568550909       -2.77804961197705        0.11602398740212
