25
 energy: 60.924583186114 xtb: 6.6.1 (8d0f1dd)
C            3.26633861489301        1.52068031447184        0.18133049904631
N            2.56545041570870        0.23766100336958        0.01814716879948
C            2.96021316345888       -1.05114498874963        0.04607981040763
N            1.87743766099147       -1.89167589373508        0.02412520651625
C            0.71184865268862       -1.13917323224762       -0.05756340072574
C            1.19690153267484        0.18611471154925       -0.08983947680403
C            0.30358323483841        1.30127829540027       -0.15272946541163
O            0.63880398130913        2.47827984386111       -0.20420920973941
N           -1.00039398655046        0.89923726640926       -0.11901888302834
C           -2.09478020750970        1.86104290195671       -0.05171052833773
C           -1.47383323056691       -0.42484305485873       -0.08533730279320
O           -2.69473102954379       -0.41130230833077       -0.04470263568581
N           -0.58156756858265       -1.49939780840934       -0.07689536923147
C           -3.02549374528065       -2.98764632718278       -0.07872289183314
H            4.11122159643305        1.44542871010883        0.86583337239586
H            3.62482106520758        1.92880071172128       -0.77219396323877
H            2.58379142816192        2.26406792415642        0.61708239363121
H            3.96252117507509       -1.43248620690437        0.13035960166689
H           -1.64307411225245        2.84634226024767       -0.01444001724628
H           -2.75579556379314        1.69529463497052       -0.91213125700545
H           -2.73153567855977        1.61707543500782        0.81719787005555
H           -2.94049209452461       -3.47763496181184        0.84562428430310
H           -2.90560684743092       -3.49951981687006       -0.98484372550068
H           -3.34637703908679       -1.98265735730863       -0.09249305932142
H            1.89392388094495       -2.90921553966264        0.07478388046882
