  72
        -99.33881069
 N         -2.7583744608        2.4564848554        2.2442621161
 C         -2.2336111923        2.6338447057        0.8929678494
 C         -2.5384604583        1.8077416481       -0.1207866317
 C         -3.1969631134        0.5131306066        0.0862082263
 C         -4.2777029092        0.1311508021       -0.7202798386
 C         -4.9239873433       -1.0755007898       -0.5313018424
 O         -5.9824579053       -1.5153404634       -1.2452084527
 C         -6.5300769317       -0.6859249620       -2.2419869866
 C         -4.4754654247       -1.9607008252        0.4867345538
 O         -5.1690974557       -3.1134285322        0.5923730468
 C         -4.8332306162       -4.0253161600        1.6108830236
 C         -3.3915937303       -1.5912298304        1.2669275629
 C         -2.7623452212       -0.3665811544        1.0755401191
 C         -2.1718807228        2.1849844037       -1.5292330273
 C         -1.2796980511        1.1158121557       -2.1956706791
 C          0.0365666780        1.0257389692       -1.5286461696
 N          0.5652319495       -0.0762868347       -0.9823549038
 C          1.9265752237       -0.0486963119       -0.5060379497
 C          2.9344182449       -0.4730576774       -1.5932386316
 C          4.3377344419       -0.3167658072       -1.0802341093
 C          4.9868396845        0.9021705749       -1.1676742948
 C          6.2706416161        1.0606327599       -0.6668789342
 C          6.9282130794        0.0000832615       -0.0639376075
 O          8.1749384389        0.0394891729        0.4543818903
 C          8.9131204282        1.2349423897        0.3621160417
 C          6.2695118516       -1.2533697147        0.0336475626
 O          6.9836309608       -2.2333292301        0.6326630022
 C          6.4271996533       -3.5212598342        0.7317968725
 C          4.9871039970       -1.3885056218       -0.4709391966
 C         -0.0688843212       -1.3662640746       -1.1017373864
 C         -3.9909683325        3.2614048965        2.5141872486
 C         -5.1689397164        2.7465946149        1.7574762561
 C         -3.7537860433        4.7369140035        2.5482291568
 H         -4.6295783490        0.8120977467       -1.4771938908
 H         -6.8822721027        0.2634530396       -1.8261714114
 H         -7.3772293091       -1.2364537728       -2.6460394952
 H         -5.8114334468       -0.4911930364       -3.0447697601
 H         -4.9209644448       -3.5703503785        2.6023771260
 H         -5.5520717582       -4.8375971782        1.5233427213
 H         -3.8218686205       -4.4228800722        1.4783561444
 H         -3.0200490821       -2.2545700275        2.0311566777
 H         -1.8810466577       -0.1384273668        1.6612002247
 H         -3.0801806030        2.2923848698       -2.1248011215
 H         -1.6566226391        3.1457222267       -1.5310626444
 H         -1.7996764269        0.1598497464       -2.1938815969
 H         -1.1319706080        1.4197891032       -3.2383788708
 H         -1.7453364939        3.5824577954        0.7344034333
 H          0.6126115592        1.9309686101       -1.4310805915
 H          2.0176662154       -0.7166034654        0.3542221922
 H          2.1693358097        0.9644009753       -0.1787339805
 H          2.7840517225        0.1600596544       -2.4696017874
 H          2.7484309933       -1.5089639518       -1.8788807909
 H          4.4997998257        1.7410639985       -1.6417063960
 H          6.7531266358        2.0199609506       -0.7575524145
 H          8.4296487281        2.0492698843        0.9111728297
 H          9.0624439266        1.5350753107       -0.6796090491
 H          9.8780294905        1.0179322052        0.8163689311
 H          7.1858629717       -4.1306226842        1.2192496419
 H          5.5178786905       -3.5213929412        1.3421412197
 H          6.2056980177       -3.9407874071       -0.2547477640
 H          4.4802623333       -2.3388378781       -0.4088449318
 H         -0.1125517485       -1.6983816407       -2.1421963594
 H         -1.0842883730       -1.3296696409       -0.7024601208
 H          0.4984236080       -2.0962297232       -0.5297562602
 H         -3.0263898914        1.4755005973        2.3570310180
 H         -5.3225775546        1.6836302677        1.9458700733
 H         -5.0733129144        2.8823878061        0.6719858247
 H         -6.0580384390        3.2810668779        2.0786522934
 H         -2.8463727969        4.9747064403        3.1027863043
 H         -3.6753393524        5.1869419144        1.5501829238
 H         -4.5874334204        5.2219406793        3.0498372358
 H         -2.0512304727        2.7133541997        2.9407700232
