72
 energy: -99.540945900059 xtb: 6.6.1 (8d0f1dd)
N           -0.63951076176408        1.17294844582882        3.09879495415198
C           -0.96582674484107        0.84671378983893        1.98895499184509
C           -2.85393765118568        1.90346506241321       -0.06218173022703
C           -3.49480941894681        0.68299194207946        0.27431982358284
C           -4.06112926580575       -0.08913137507307       -0.75525978614574
C           -4.57872776541046       -1.33797034237099       -0.52477336807487
O           -5.19388668920208       -2.05723823612914       -1.50554003355815
C           -5.34681761992852       -1.42982549803331       -2.75132500853348
C           -4.51460238198725       -1.93541336203946        0.75043104151338
O           -4.93719561106253       -3.24061532641004        0.84841200472471
C           -4.76327688181380       -3.87342102511263        2.08598932509106
C           -4.08674438375235       -1.17024764316595        1.82408038049965
C           -3.60962346252871        0.11352299398319        1.60071191155590
C           -2.52716600773149        2.25705654030629       -1.47208698164295
C           -1.61820328963120        1.28084141978138       -2.27764489082281
C           -0.17194197528554        1.18848833434699       -2.00533809433585
N            0.39502975908689        0.20000369139163       -1.28613631603777
C            1.73359466269393        0.33115099036815       -0.80723198982002
C            2.78344123162851       -0.21562575013242       -1.78187631987953
C            4.12351825412298       -0.13265436202018       -1.11839326862759
C            4.87511576465314        1.02533962847202       -1.17063766002032
C            6.11030499571092        1.09209158582510       -0.53281674330693
C            6.62213994064902        0.01270826453430        0.17675790519825
O            7.84510203976639       -0.02847687709833        0.82156347243975
C            8.71562329532137        1.08359228212694        0.74101412953852
C            5.83643804461161       -1.16823351564308        0.25770501266239
O            6.41189044669287       -2.18985280718911        0.96379700053417
C            5.70153545442506       -3.38640325128220        1.15015965465214
C            4.60596705614273       -1.21629393241408       -0.38344908900398
C           -0.32517431398985       -1.01215477649779       -1.01568721699488
C           -3.01803809984302        3.17633030263725        0.74163928004302
C           -4.06764383186828        3.23275613198102        1.85307617290550
C           -1.65842101948475        3.72423935458629        1.17226748878227
H           -4.15252673030788        0.37531375531272       -1.71407432023035
H           -5.94269753302520       -0.51254334273694       -2.71172275488628
H           -5.87096296013647       -2.15823541784762       -3.36216333882197
H           -4.38235807016197       -1.17982639256828       -3.20692415902526
H           -5.35699980051999       -3.38997275074912        2.87830358903563
H           -5.09744535323996       -4.89948589061608        1.96159472945964
H           -3.69795187042130       -3.89739346080268        2.33717192936684
H           -4.11756532843384       -1.60414102086205        2.82890008653787
H           -3.31203644489257        0.64455024193807        2.49935614026003
H           -3.47039359374195        2.35964130785622       -2.01955530781281
H           -2.01055003566679        3.22409506976990       -1.50502802996805
H           -2.08589202925041        0.30203945442774       -2.25253028832699
H           -1.73649500087844        1.75623611881456       -3.23613618833323
H           -0.98644295049680       -0.06466939424366        1.49523349452148
H            0.47505673739188        1.98530620508766       -2.33956923189412
H            1.81370141449009       -0.19470807435737        0.14841079956543
H            1.96183528291937        1.37779388303662       -0.63639560880883
H            2.76947162881213        0.37112104182336       -2.70419750268951
H            2.52308458242571       -1.24495451139134       -2.02171330643561
H            4.51292627039418        1.88036618344440       -1.72600986501644
H            6.68753867382233        2.00052016970342       -0.61386549568812
H            8.28159808366346        1.97217303651078        1.20408392779731
H            8.96363412342818        1.31815565704125       -0.29820528995132
H            9.63638782498123        0.82891911684139        1.28170990953880
H            6.31027568340872       -4.02848028371440        1.80624879924507
H            4.75233538862468       -3.15082444102438        1.62493047155329
H            5.47742020602336       -3.89128506852204        0.20179678386098
H            4.00045559777387       -2.11086505325084       -0.34346780818035
H           -0.48138266210116       -1.58349131004222       -1.93147668539623
H           -1.29178431525937       -0.77799762437491       -0.60410814059441
H            0.22051398062352       -1.61600805155966       -0.29129078252027
H           -3.36410409399158        3.84755784926326       -0.05246063969978
H           -3.65900728581596        2.81990765648082        2.77265778513119
H           -4.99916705603488        2.69053883811487        1.58866281599442
H           -4.35038494474917        4.27879294395099        2.02065872809524
H           -1.14571195170461        2.96642295971629        1.75857166369577
H           -1.07072274854403        3.93523213290686        0.28173602644954
H           -1.77305507522093        4.62656275377283        1.75586474705445
H           -0.09896078075008        1.16987354548397        3.89098165089908
