  25
        -42.18767542
 C          3.8169738887        1.2021955730        0.1610458971
 N          2.1534877610       -0.6598909224       -0.0706343196
 C          3.3298911806       -0.1761321094       -0.0383779415
 N          0.2827578697       -2.6672868297       -0.0179623661
 C         -0.0586947528       -1.4351051401       -0.0065963971
 C          0.8680829550       -0.3161139307       -0.0240345459
 C          0.3422683492        1.0437376362       -0.0352414929
 O          1.0443844074        2.0414368992       -0.0631404368
 N         -1.0368550489        1.1590530928       -0.0026493107
 C         -1.6176107700        2.4886226322        0.0045873680
 C         -1.9382041581        0.1068159144        0.0179636623
 O         -3.1281920329        0.3106856598        0.0390336446
 N         -1.4063546847       -1.1660529111        0.0122674974
 C         -2.3214014244       -2.2856022248        0.0085858526
 H          4.4587172436        1.2417331946        1.0435549550
 H          4.4437802390        1.4731563946       -0.6937928053
 H          3.0026246263        1.9198967546        0.2586948752
 H          4.1095039336       -0.9275413495       -0.1766859715
 H         -0.8103754631        3.2205653244       -0.0024755160
 H         -2.2548423286        2.6222024201       -0.8724150405
 H         -2.2387770781        2.6183798251        0.8935214584
 H         -2.1363063678       -2.9198130661        0.8778505840
 H         -2.1645834963       -2.8894855699       -0.8877653140
 H         -3.3416426557       -1.9016478676        0.0302763306
 H          1.2531553382       -2.9489173235       -0.0384069300
