  25
        -42.15971952
 C          2.9163780595        0.8652422948        0.4379716911
 N          1.9074848197       -0.1177044780        0.1067959908
 C          2.2190398083       -1.3053687226       -0.3542248596
 N          1.2798510736       -2.2139305876       -0.7450199224
 C         -0.0915025206       -2.0642206311       -0.4078880234
 C          0.5837966420        0.2424192075        0.3194592646
 C         -0.0078330417        1.5128989106        0.1237660678
 O          0.4594273894        2.6256226060        0.1099732973
 N         -1.4136370339        1.2505434598       -0.0574453981
 C         -2.3676751710        2.3224532490       -0.2438757110
 C         -1.7216846452       -0.0367806980       -0.1168863440
 O         -2.7161251512       -0.6598069946       -0.3095309304
 N         -0.4155680353       -0.7733139720        0.1719984666
 C         -0.4892468994       -1.9646934872        1.0176411000
 H          3.1708659501        0.8016651868        1.4978481141
 H          3.8106362347        0.7016862358       -0.1590039659
 H          2.5163045711        1.8615008755        0.2426558699
 H          3.2539043694       -1.5688852353       -0.4903230100
 H         -1.8143863630        3.1960297476       -0.5862094672
 H         -3.1148783615        2.0264292231       -0.9770685663
 H         -2.8579887561        2.5573575754        0.7013933998
 H          0.2652348898       -2.0548282929        1.7882387758
 H         -0.7866692463       -2.4658626800       -1.1321437011
 H         -1.4944834730       -2.2489853715        1.3090322089
 H          1.5918462356       -3.1400330258       -0.9961182225
