72
 energy: -99.636248529064 xtb: 6.6.1 (8d0f1dd)
N           -2.02735343885826        2.97736949941405        2.57676852539174
C           -1.91353938028069        2.13441904313800        1.64612679518160
C           -2.87879378609106        1.98211032772238        0.49892469142160
C           -3.57212208489949        0.63550775305956        0.56800187109564
C           -4.33187310395124        0.17691477492837       -0.50830511240449
C           -4.98453753384111       -1.03786247122100       -0.47264882585881
O           -5.74370257168005       -1.55686324321381       -1.47999155733388
C           -6.03951223542354       -0.73786852378028       -2.58589098775368
C           -4.85919636673830       -1.84976963160008        0.67473163101696
O           -5.54864358713456       -3.02743835920536        0.61941624381500
C           -5.47034189853171       -3.88782068403025        1.72473644391156
C           -4.07883995854843       -1.40771843815707        1.73001968849798
C           -3.43549772262704       -0.17741319881725        1.66936617319751
C           -1.96613780825849        2.03946687729783       -0.78452439790832
C           -1.11042510819711        0.80391438571357       -0.94387204022206
C            0.16588387116900        0.77881264604230       -0.51920550056072
N            0.86413610601491       -0.38823299987950       -0.36815024390788
C            2.25558354016672       -0.27573642665380       -0.05154210510283
C            3.15546481388328       -0.39568546217024       -1.30023038127600
C            4.59345715723487       -0.30489464563047       -0.91371569210728
C            5.28117588689562        0.89080216053922       -0.99642832352398
C            6.60269172403133        0.97243461533422       -0.58617204469868
C            7.25580848602169       -0.13742499944165       -0.07990862799660
O            8.56191504265609       -0.16904401442775        0.33307098813247
C            9.32047027645741        1.00538966820201        0.20550506494057
C            6.54887573625332       -1.35607559101625        0.03356278156189
O            7.27362861779855       -2.39899389397475        0.53436589579497
C            6.63184210369489       -3.64249310284565        0.64493597830603
C            5.22705048337953       -1.42407728597800       -0.37323965743968
C            0.45548778512939       -1.51670031366758       -1.14146130958108
C           -3.98413756351477        3.08546800634833        0.46091013977345
C           -4.85385979641499        2.99123383247637        1.72008933220141
C           -3.41895973598621        4.50032146122560        0.34318595096679
H           -4.40707920867616        0.79057150118657       -1.39050387774757
H           -6.51214876035639        0.20467773100658       -2.28061439122628
H           -6.73949341190334       -1.30633964887682       -3.19947541815982
H           -5.13913298359114       -0.51838917696288       -3.16929537150498
H           -5.87009480400582       -3.41050835025223        2.62457862166153
H           -6.07832440619707       -4.75420745817178        1.46702382205183
H           -4.44175582045739       -4.20981527561848        1.92588798792666
H           -3.94704817669008       -2.01174812272217        2.61520601095833
H           -2.85706091053928        0.16330775944391        2.51320198915540
H           -2.63723556731694        2.20542740230618       -1.62604504092206
H           -1.36293978610685        2.94715039859200       -0.71444423151038
H           -1.68117259101070       -0.09045260295881       -1.04841653824838
H           -0.06006245178786        0.09618834378576       -3.03763533880458
H           -1.07046480362147        1.41998120231330        1.58733764739516
H            0.75964642481165        1.68715168629394       -0.42656003091951
H            2.50958508673796       -1.05110500908046        0.67878733188946
H            2.42989492580966        0.68902884701188        0.43297830805866
H            2.88881498945137        0.41399936616843       -1.98440056383557
H            2.94847078622291       -1.35460201443115       -1.78178973328906
H            4.79164960479678        1.77783588611336       -1.37429091253196
H            7.10823015586331        1.91925566518742       -0.67264584222289
H            8.93023245163481        1.81729497890021        0.82732822079457
H            9.37550760628825        1.34505748622920       -0.83626164300526
H           10.31927156464244        0.75121408007106        0.55606466971943
H            7.37939878823819       -4.32639277711581        1.04343288957523
H            5.77428559061294       -3.59517206942172        1.32503786362392
H            6.29077961946364       -4.01193557041741       -0.32727215779779
H            4.66834863233324       -2.34408277553536       -0.29356910903347
H            0.37148367717496       -0.94937819745720       -2.50882401409937
H           -0.59164450247265       -1.72512123355218       -0.77687241706892
H            1.06435933258073       -2.38656378113689       -0.86816840032763
H           -4.62642701413029        2.90083117584418       -0.41238347664338
H           -4.24354603475838        3.21412954130455        2.58652592582999
H           -5.27159132463373        1.99237461403219        1.82855885484044
H           -5.67174918805275        3.71266973186258        1.67442117378004
H           -2.72307691547594        4.67570668265757        1.15761807068029
H           -2.90416841234050        4.64479828214796       -0.60582638211153
H           -4.22748649577121        5.22834498188309        0.41419170639213
H           -1.24730294783983        2.93724890956084        3.23204069304504
