  72
        -99.29013788
 N         -1.2151376016        2.3992119902        2.2306937241
 C         -1.4841459686        1.7566161809        1.1934497204
 C         -2.7880686905        1.8312437678        0.4491104054
 C         -3.4347434677        0.4542624898        0.4426401047
 C         -4.4985370363        0.1802104931       -0.4187605919
 C         -5.1501213914       -1.0419944120       -0.3967682987
 O         -6.1831400307       -1.3903167100       -1.1925328325
 C         -6.7102240786       -0.4456388709       -2.0938964528
 C         -4.7366822601       -2.0399892611        0.5262822685
 O         -5.4429604980       -3.1881545664        0.4962733275
 C         -5.1759589396       -4.1798346381        1.4602455243
 C         -3.6742030268       -1.7644420897        1.3717904374
 C         -3.0331537846       -0.5338539792        1.3283038466
 C         -2.4342403688        2.2808688008       -0.9924964768
 C         -1.7307797410        1.2117721033       -1.8486752424
 C         -0.3315200652        0.9778092724       -1.4322688173
 N          0.2600190571       -0.2141983204       -1.3525492510
 C          1.6089517696       -0.3228190118       -0.8553161733
 C          2.6509939628       -0.5328197483       -1.9696415217
 C          3.9592863919       -0.6217609866       -1.3608782248
 C          6.7537597734        1.6377255144       -1.8910905389
 C          7.5370147527        1.1629009845       -0.9171096148
 C          7.2336146667        0.1500385632        0.0601246667
 O          8.0759171404       -0.1055444729        1.0911131686
 C          9.1316313974        0.7718878433        1.3962931098
 C          6.1355541870       -0.6941391388        0.0426347326
 O          6.0570573932       -1.5950632054        1.0653655143
 C          5.5794853547       -2.8943852836        0.7885725074
 C          5.0416140938       -0.5898052589       -0.8254743799
 C         -0.4576485390       -1.4377978423       -1.6163717159
 C         -3.8036719941        2.8313975591        1.0785870529
 C         -4.2205436194        2.3946562486        2.4808426884
 C         -3.2866220835        4.2673794715        1.1230008265
 H         -4.8362623686        0.9416981054       -1.1020678175
 H         -7.0830316285        0.4421519454       -1.5737072521
 H         -7.5399388916       -0.9465219047       -2.5890383780
 H         -5.9697567359       -0.1482672487       -2.8441648100
 H         -5.3090259754       -3.7958588063        2.4761836349
 H         -5.9010007550       -4.9699529082        1.2752950177
 H         -4.1647337758       -4.5848081721        1.3524037045
 H         -3.3441577937       -2.4985282036        2.0887167494
 H         -2.2324383883       -0.3446368394        2.0263112994
 H         -3.3531386554        2.5713631345       -1.5008816128
 H         -1.7982975267        3.1648025085       -0.9358116167
 H         -2.3108673586        0.2904796277       -1.8330585615
 H         -1.7250709944        1.5862915415       -2.8803208218
 H         -0.7648015010        1.0889680356        0.6826885791
 H          0.2975456470        1.8407637507       -1.2769470252
 H          1.6622184222       -1.1621960673       -0.1552712246
 H          1.8652675473        0.5874434555       -0.3086224239
 H          2.6141891643        0.3044760305       -2.6728926482
 H          2.4390171410       -1.4515856942       -2.5232066204
 H          7.1412461912        2.3759063326       -2.5745750553
 H          8.5425597803        1.5548184182       -0.8492194709
 H          8.8095536115        1.8168182007        1.3943906777
 H          9.9768196170        0.6413109568        0.7110383006
 H          9.4511655800        0.4987207620        2.4021115711
 H          5.1180177349       -3.2672556103        1.7029521138
 H          4.8498745185       -2.8968302321       -0.0255413444
 H          6.4192142921       -3.5426404805        0.5217536057
 H          5.7372636786        1.3251644911       -2.0343918986
 H         -0.8506133904       -1.4466201898       -2.6321511976
 H         -1.2908421138       -1.5585925664       -0.9176691775
 H          0.2155953334       -2.2815463767       -1.4983969046
 H         -4.6947611063        2.8082237378        0.4403332233
 H         -3.3611114815        2.3994700690        3.1434759085
 H         -4.6556850501        1.3979902652        2.4709119071
 H         -4.9614901396        3.0860591127        2.8724339654
 H         -2.3761170494        4.3196238688        1.7114556299
 H         -3.0969327949        4.6636891288        0.1292654055
 H         -4.0334556153        4.8997737090        1.5951920814
 H         -0.2889990242        2.2857666964        2.6305418993
