72
 energy: -99.369977669969 gnorm: 0.004474585471 xtb: 6.6.1 (8d0f1dd)
N           -1.48772328489512        2.78191204675294        2.25835850435995
C           -1.48180443705871        2.09063756172709        1.21861051849693
C           -2.67735356292984        1.86625900973751        0.33460778010626
C           -3.12444444057562        0.41505598189930        0.44814097245810
C           -4.05549788767119       -0.09683572173594       -0.45743327476890
C           -4.52423387938711       -1.39605438026222       -0.35758404988588
O           -5.42365810107831       -1.96532714905806       -1.18630827422779
C           -6.00275009993394       -1.19368909646331       -2.21176831332827
C           -4.05034659775037       -2.23254385395587        0.68916141394018
O           -4.56801270678095       -3.47634729609952        0.71586076418402
C           -4.22660945590431       -4.33925995769223        1.77566495499634
C           -3.12261295223546       -1.71907262132922        1.58181646145664
C           -2.66684921538129       -0.41323210579695        1.46147002197027
C           -2.20971495358012        2.16139530664536       -1.11314404616595
C           -1.20399749428816        1.13742989289022       -1.66024586205350
C            0.17881806162260        1.38111495529393       -1.19125650365717
N            1.09325921757870        0.44613996184364       -0.97154712060117
C            2.48930539150246        0.79770204328733       -0.82315419616548
C            3.24358666494668        0.47021628578659       -2.09582294431111
C            4.12723758268795       -0.75398073231637       -2.21819714362272
C            4.74339907091891        0.64120773125394       -2.18129231082842
C            5.51980476138305        0.99409788049010       -0.99685113939734
C            5.56902104251640        0.19347321409096        0.09268830609825
O            6.21344046639689        0.45986203963273        1.24690296638619
C            6.96284967986638        1.64825373899409        1.34537205166490
C            4.98471369948745       -1.14994221931818        0.05651110752879
O            5.21346566985043       -1.85504544983493        1.18488562999810
C            4.90038400732560       -3.22712533121513        1.20475946594096
C            4.38327819799307       -1.61319414164836       -1.06571290652577
C            0.77538317878780       -0.96060657423913       -1.00108018039394
C           -3.89164514498096        2.77418498816763        0.69424646848101
C           -4.46950911705213        2.42277484186161        2.06315427208064
C           -3.56564828469569        4.26437943277140        0.64480587959136
H           -4.43462099229818        0.53552631757785       -1.24256663476748
H           -6.53283162564485       -0.32463763582666       -1.81053719552749
H           -6.71471374889227       -1.85204153882533       -2.70558295558848
H           -5.25334070669513       -0.86345607828806       -2.93871382288354
H           -4.50888321296856       -3.91472487898168        2.74363744205356
H           -4.79332472549143       -5.25203017186078        1.60264388728864
H           -3.15709953688880       -4.57205575293605        1.77643191172259
H           -2.75496056157007       -2.32621563220296        2.39298228036000
H           -1.96691029965313       -0.04080524887255        2.19315823214365
H           -3.08209628793115        2.17770162318125       -1.76460432965625
H           -1.76028314915806        3.15420635717706       -1.14593426689441
H           -1.54064035180941        0.12710991203429       -1.42723817450009
H           -1.19715798749152        1.23492275998676       -2.75444888448088
H           -0.57521376564489        1.59660194130985        0.81481958379442
H            0.52728230148511        2.40347831973020       -1.18267979566490
H            2.91521805649572        0.24429402935051        0.01849454782856
H            2.56656689345698        1.86639670625654       -0.60601176027113
H            2.69693928434015        0.74568996140585       -2.98932263825389
H            4.08112084104998       -1.26729773118874       -3.16569565348639
H            5.11069014510223        1.06852753487879       -3.10558416227404
H            6.08565081068919        1.90968841481680       -1.04274986851935
H            6.33282830965707        2.53205243336593        1.20302985652886
H            7.78010520073989        1.66418846015684        0.61844030345047
H            7.37449581179946        1.65397361714120        2.35247571765742
H            5.21378383880190       -3.58591701611114        2.18294333223801
H            3.82472113664938       -3.39533707839275        1.08339322866793
H            5.44269359501654       -3.77188551318232        0.42683373881666
H            4.10587347599302       -2.65019059535820       -1.16272109765297
H            0.52932289095189       -1.28993866919206       -2.01284416155043
H           -0.07410008168215       -1.17288173349638       -0.34870098723250
H            1.63735291092487       -1.52489150497866       -0.65462225191136
H           -4.66150756271459        2.56992671448101       -0.05887673066775
H           -3.73090218871099        2.60635822755990        2.83677067455725
H           -4.77597731050447        1.38063774334039        2.10645232944158
H           -5.33960180076507        3.04326512904101        2.26048448749483
H           -2.79692119059732        4.50586928008839        1.37239033468311
H           -3.23785625647393        4.57873776727636       -0.34249275056179
H           -4.45849590424001        4.83197648869452        0.89334389612654
H           -0.61622573501807        2.88347628119122        2.76884790627836
