72
 energy: -99.545619685880 xtb: 6.6.1 (8d0f1dd)
N           -1.53672893727740        2.86053742849101        2.19110340279671
C           -1.63517228614845        2.13709807130882        1.16994361036475
C           -2.85762832799066        2.06727998108027        0.29363052607684
C           -3.45146974797865        0.66995048228139        0.37549802460929
C           -4.39858941137541        0.25239824038029       -0.56230555885216
C           -4.96401773173478       -1.00702858819991       -0.50497134560466
O           -5.88544361336206       -1.49593674333426       -1.38373138903953
C           -6.40161348063587       -0.63755468253820       -2.36929962530961
C           -4.58210602534716       -1.89781660190633        0.52414154590052
O           -5.17621919624364       -3.12264281427112        0.48895951781130
C           -4.87934354408467       -4.04270900253550        1.50833253640910
C           -3.66228802743054       -1.47482160718166        1.46468270412276
C           -3.10397360536637       -0.20370481258523        1.38950000429984
C           -2.32972964853457        2.35389172400044       -1.13864226240081
C           -1.51579657566008        1.21383903445330       -1.76866800640385
C           -0.19741790929861        0.99564199518603       -1.05586538433822
N            0.40900831739132       -0.24417878248637       -1.13856477457107
C            1.82015578453467       -0.37978525633170       -0.93461271556588
C            1.51297523472117       -0.64543781196868       -2.36128209369632
C            4.91385884087244       -0.28699720810403       -0.46546033996729
C            5.57980240069347        0.87282205461519       -0.71769944444010
C            6.91010010590454        0.93458211419009       -0.32560493094590
C            7.51682011508720       -0.16388662425067        0.24561679152453
O            8.81928374719454       -0.23483008230903        0.66334066107973
C            9.64613279564968        0.87719517091231        0.50553302137104
C            6.79915161797550       -1.35293780550984        0.46580801958609
O            7.48448410859758       -2.35696744441594        1.07461104933759
C            6.84438582902496       -3.58443496090605        1.31863894190726
C            5.47308642771207       -1.40965175578275        0.08458835534695
C           -0.40691430670463       -1.36422122610678       -0.67314030228875
C           -3.97034127238911        3.08726468189310        0.66708088291285
C           -4.54629323332526        2.80491788277613        2.05408806925285
C           -3.50097464910678        4.53906919645172        0.59583238205768
H           -4.69567637203944        0.93135734598558       -1.34475125450561
H           -6.87806892940484        0.24423939806753       -1.92753299081895
H           -7.15132195460418       -1.22329341720851       -2.89833102034151
H           -5.62938221593603       -0.31908345604090       -3.07830033285418
H           -5.19450467362875       -3.67247590041820        2.48882621957481
H           -5.44650001065282       -4.93909163629244        1.26278342155586
H           -3.81138416026775       -4.28738879849290        1.53834058370171
H           -3.37434796097202       -2.12116164642658        2.27879414476218
H           -2.41566323701966        0.10667532241208        2.16114333897330
H           -3.17800701491390        2.57777921983987       -1.78619361487849
H           -1.70361368727922        3.24789002926537       -1.09658396622783
H           -2.12215980429407        0.30557540610091       -1.75619264139022
H           -1.35557257070555        1.48227021113809       -2.82563030384222
H           -0.82045084827983        1.52012253142015        0.74128845615727
H            0.50590282190170        1.80657799879512       -1.20085203341612
H            2.09056807197663       -1.19591326759893       -0.26624963860991
H            2.33856856442188        0.53496824252283       -0.67584688243444
H            1.66268211278934        0.18485652726070       -3.03565655112934
H            1.53451244741577       -1.63801727939063       -2.75141797086558
H            5.11282269394473        1.73309933570531       -1.17834026059371
H            7.44900456077248        1.85861143593902       -0.45890477824014
H            9.28960295614096        1.74616941381016        1.07098292278970
H            9.76298276487435        1.15698276686520       -0.54844987808759
H           10.61403262920139        0.55332701270192        0.91023392343104
H            7.65076493500545       -4.18852569418586        1.75141817429025
H            6.01594093213513       -3.50031944791669        2.03545729157208
H            6.47735438584737       -4.06327344904325        0.40280367333719
H            4.88759277343895       -2.30593223363368        0.23136243299135
H           -1.17616155068637       -1.60575091949528       -1.39432946195866
H           -0.94525414957252       -1.07755379546176        0.22561237602683
H            0.21923158130992       -2.24145191071158       -0.51500645333687
H           -4.77319330289568        2.95176610497646       -0.06846016184087
H           -3.77441096950294        2.93054687010154        2.80740978066954
H           -4.94215462015161        1.79408098645795        2.11760479234468
H           -5.35518831185296        3.50075412426561        2.26297813963074
H           -2.67795949507513        4.69891095434202        1.28445502172266
H           -3.18996548795189        4.81511538159065       -0.40796485018746
H           -4.31910095059445        5.19589515642682        0.88352124550816
H           -0.63857569671957        2.84276983603386        2.67158989454470
