  25
        -42.15886268
 C          2.9336409987        0.8711472058       -0.3630658659
 N          1.9064931518       -0.1179281798       -0.0988515217
 C          2.2185551933       -1.3159978670        0.3383369369
 N          1.2828559514       -2.2347231023        0.7118571908
 C         -0.0918874552       -2.0715758429        0.3950514118
 C          0.5848279075        0.2430069002       -0.3115763588
 C         -0.0109504583        1.5160707399       -0.1467771271
 O          0.4457540884        2.6323915468       -0.1770717464
 N         -1.4153054603        1.2517629167        0.0576250768
 C         -2.3677841193        2.3251043548        0.2434358543
 C         -1.7204756201       -0.0343706795        0.1372278086
 O         -2.7098546779       -0.6595343737        0.3471216103
 N         -0.4149891043       -0.7715978155       -0.1640225988
 C         -0.5008328669       -1.9516621602       -1.0243292033
 H          3.5533859305        1.0131402565        0.5235943139
 H          3.5655419613        0.5499661431       -1.1931371211
 H          2.4566500890        1.8182415885       -0.6146526514
 H          3.2548373137       -1.5763624765        0.4698550323
 H         -1.8019326819        3.2168079180        0.5107945272
 H         -2.9129575339        2.5098532074       -0.6826632386
 H         -3.0705866581        2.0633306624        1.0317559654
 H         -0.7813890820       -2.4716310835        1.1269206089
 H          0.2491437972       -2.0360471473       -1.8001129865
 H         -1.5092438801       -2.2273265422       -1.3140481255
 H          1.5960726588       -3.1708675775        0.9214029033
