25
 energy: -42.205627618057 gnorm: 0.006283936697 xtb: 6.6.1 (8d0f1dd)
C            3.95022342320872        0.28584688064356       -0.12512624492584
N            2.52334454629558        0.22265575022123       -0.24785893804907
C            1.77064866318446        0.67894554019635       -1.25558150869620
N            0.48322442960165        0.47613090531535       -1.06408053891525
C            0.33438556863311       -0.14289287487995        0.12205815792675
C            1.64516999614327       -0.33166959486196        0.69805731506418
C            2.03984338593242       -0.88524666080845        1.85549874556610
O            2.42297749339948       -1.36507975355052        2.84148370021159
N           -2.12863640832195        0.32115754605806       -1.11698377072751
C           -3.33885701270975        0.60588377053123       -1.83340540081550
C           -2.13059452305213       -0.29569102688584        0.07233341389264
O           -3.12019792166364       -0.66538717821365        0.66255543307668
N           -0.84341923327813       -0.51613492778122        0.66504475843090
C           -0.83836159596138       -1.18748464919853        1.94785078380035
H            4.36414955384901       -0.71083740353086        0.04003683528955
H            4.36775550260248        0.69768265050032       -1.04212228259675
H            4.23637520950123        0.92430019609121        0.71408496299140
H            2.16420932067518        1.15959368682167       -2.13027772147059
H           -3.37779204661382        1.66664115918950       -2.09064371357938
H           -3.37605055562622        0.02694318750206       -2.76029205060611
H           -4.19652280807965        0.34484117314104       -1.21255075187230
H           -0.41874078780872       -0.54103607753534        2.72110179243689
H           -0.26920283964899       -2.11729719998088        1.89392269746314
H           -1.87434702818443       -1.41856391356629        2.20373771086212
H           -1.22915281798706        0.58493735618627       -1.52767176685516
