  25
        -42.16926269
 C          2.7329014031        1.1721629160       -0.7034479167
 N          1.9592481093        0.0264224355       -0.3083650351
 C          2.3978637016       -1.2210563024       -0.2721208154
 N          1.4064352403       -2.0284143878        0.1287213738
 C          0.2840652339       -1.2700791228        0.3719361612
 C          0.6416883434        0.0456653386        0.0784046563
 C         -0.1009363981        1.3046582796        0.2920458556
 O          0.4648684953        2.2837949292        0.7259389201
 N         -1.4613324063        1.3028553617        0.0239319801
 C         -2.2396168091        2.4167500600        0.5483499729
 C         -2.0476508705        0.4507613872       -0.8768440955
 O         -1.4833355685       -0.4208903887       -1.4847330889
 N         -0.8501159076       -1.7065577702        0.9379734387
 C         -1.5069014076       -2.7588686816        0.6948684232
 H          2.6355417024        1.9563873568        0.0483025323
 H          3.7766713455        0.8875852209       -0.8117049585
 H          2.3658232690        1.5650122315       -1.6526763299
 H          3.3923131163       -1.5399524399       -0.5187446751
 H         -1.6601229320        2.9040550457        1.3288186624
 H         -2.4524471685        3.1453329072       -0.2344461970
 H         -3.1743285363        2.0441990107        0.9625758774
 H         -2.3512012297       -2.9745433335        1.3325323382
 H         -1.3009973048       -3.4382711729       -0.1297106039
 H         -3.1169995927        0.6690411870       -1.0035284429
 H          1.4787973849       -3.0271959592        0.2654722464
