25
 energy: -42.218758789877 gnorm: 0.006021373937 xtb: 6.6.1 (8d0f1dd)
C            3.68788246999311        0.76700364920195        0.02663016934695
N            2.57292773604144       -0.14384394922616        0.00393514032772
C            2.61642163993127       -1.46417159383079       -0.00915612809599
N            1.36242194757650       -1.96242230117573       -0.01112187222897
C            0.49417000272274       -0.90864530593307        0.00131930317709
C            1.25986206965683        0.24260882878105        0.01132796924352
C            0.61727585794317        1.57538010534882       -0.00731718876616
O            1.21281261488013        2.61878015596401       -0.02986186586578
N           -0.75063383646747        1.46418160494700       -0.00286290290160
C           -3.44188425805508        1.59294078102992        0.00378190346219
C           -1.42421331130128        0.37577385109478        0.00136117165076
O           -2.73092732394632        0.35291390682679        0.00392971893855
N           -0.85767666110178       -0.90609832372972       -0.00018245561788
C           -1.62564255289451       -2.13549117698520       -0.00945224167199
H            4.14331572309756        0.77932399700201        1.01775880830503
H            4.43758378702776        0.46690626135369       -0.70390347193031
H            3.32063633705910        1.76921276918096       -0.20007186043849
H            3.50972936818828       -2.05721128839116       -0.01889267743465
H           -2.75003639094065        2.42462307928648       -0.00197232745552
H           -4.07024957255502        1.61481360703846       -0.88334223137652
H           -4.06115305675112        1.62031704806976        0.89666807495144
H           -1.39391115980487       -2.73122118316914        0.87452132710297
H           -1.41004842550606       -2.70916303485868       -0.91206582529299
H           -2.68237069375623       -1.88421405235216        0.00322218620047
H            1.12413920305646       -2.94405889394161       -0.02308110571365
