25
 energy: -42.340615523997 xtb: 6.6.1 (8d0f1dd)
C            3.16734021865391        1.12851623820532        0.18206616403693
N            2.26323857128769        0.02177439518266        0.06165142701577
C            2.59893964041401       -1.30698479720712        0.04238838400746
N            1.44927104661566       -2.02404079767548       -0.02477911279846
C            0.40050139858546       -1.16866938571288       -0.02310217851642
C            0.87688119614366        0.16160250930986        0.04639664221649
C            0.05401214108069        1.30360050692817        0.05688915341715
O           -0.72004712492781        3.68965020435752       -0.19384290349466
N           -1.30587907922584        0.91635050602703        0.01909574710874
C           -2.15519621648635        1.94043813118395        0.20362915853556
C           -1.83069905978184       -0.39719757388561       -0.05798231411101
O           -3.02821481925285       -0.60617754268453       -0.06954846106456
N           -0.92728740427742       -1.45207958579587       -0.07203038261004
C           -1.38014370637336       -2.82325920744040       -0.12566664182076
H            3.41560642190391        1.30538805449851        1.22911099974362
H            4.07608383418851        0.92645286419976       -0.38639120551347
H            2.65627195041562        2.00323492833811       -0.21176129596619
H            3.58575927292223       -1.72709393985940        0.01990809590949
H           -1.58808950061938        4.36238794181086       -0.48503016804005
H           -3.18944564548388        1.89956638208763       -0.02254018420913
H           -1.64585587096451        2.87255535056025        0.54246752606350
H           -0.98698425381601       -3.40804105025162        0.71067610666244
H           -1.06534900289411       -3.29174355539471       -1.06345786301273
H           -2.46779629094092       -2.83205781084109       -0.07103552752738
H            1.39954637498931       -3.03331038626608       -0.06238958684996
