25
 energy: -41.926500804950 gnorm: 0.004048170327 xtb: 6.6.1 (8d0f1dd)
C            5.03787914651162        0.12754158443086        0.08947464657140
N            3.70261823769090       -0.23183936098771       -0.02728512672152
C            3.16528590360644       -1.38801124429995       -0.29755883335754
N            1.93573571062803       -1.70168613573896       -0.39713663188712
C           -0.39548256236675       -0.09162120276478       -0.01129890858057
C           -0.42601759009345        2.53604486662950        0.41374826875698
C           -1.00453033401929        1.22454018586035       -0.05379608340429
O           -0.47328471372652        2.30914531955309       -0.82039103588877
N           -2.41338483158683        1.03001003497154       -0.04326956228230
C           -3.39323763367072        2.08383006104958       -0.01555012732458
C           -2.67450972825991       -0.29054794485709        0.11161710675285
O           -3.71146096331919       -0.86904121596242        0.21953026117507
N           -1.37101532297756       -0.94084261630642        0.11523796503287
C           -1.28791188666850       -2.36798678014549        0.24765857563062
H            5.19802744356807        0.57831943617931        1.07677274896645
H            5.74356109654816       -0.70498204198154       -0.04130967586556
H            5.26421384437217        0.90587753144615       -0.65051955522070
H            3.84636529907136       -2.24127615182101       -0.47123225642923
H           -3.14429745489177        2.80345436479536        0.76871338396374
H           -3.42800600187854        2.59904038612849       -0.97822276090207
H           -4.36526005433310        1.63646934709552        0.18912245108402
H           -0.94553743149789       -2.63212525936559        1.24952500333070
H           -0.58746382088122       -2.77514271605823       -0.48027744435777
H           -2.28503474712123       -2.78087264833576        0.09344851458384
H            1.17317990939138       -1.00005925792814       -0.25582930573130
