25
 energy: 0.000000000000 xtb: 6.6.1 (8d0f1dd)
C            3.23720132972391        1.16630909158653        0.08434468864950
N            2.29877796055224        0.07527476373246        0.03981602671198
C            2.58028186251803       -1.21425391179017        0.03006175752192
N            1.43813944744728       -1.93419254010258        0.00098261751768
C            0.39035684826767       -1.05887462812143       -0.00790371763344
C            0.93510047688824        0.21347817468824        0.01709077332874
C            0.09450143016486        1.40504290868848       -0.00410946993748
O            0.49712746915594        2.54126690785742       -0.00342325656480
N           -1.25076628431515        1.06271869620815       -0.03085477937476
C           -2.21907191394203        2.15522079838987       -0.05001256521996
C           -1.81739470187490       -0.20012724136556       -0.04692818139228
O           -2.99983858926755       -0.37846413507442       -0.07008877579474
N           -0.92618577614240       -1.30210203518959       -0.03682761236648
C           -1.46982251276835       -2.64643077634382       -0.06029819901142
H            3.71247229913541        1.21471443890471        1.06488839270555
H            4.00791460421487        1.03430799217987       -0.67357688121503
H            2.69909982127087        2.09770098766290       -0.09130154035862
H            3.56654087521359       -1.63682977417947        0.04233139674524
H           -1.67107945562430        3.09322822573871       -0.02552706696334
H           -2.82428927394145        2.09428605349656       -0.95318074103337
H           -2.87644002486466        2.07745706351925        0.81450059976605
H           -1.17061985538665       -3.19584861009707        0.83242224714061
H           -1.14560246782873       -3.17511580834413       -0.95688266944647
H           -2.55549768731684       -2.55659960601237       -0.07459039105944
H            1.38130842369251       -2.94313824728853       -0.01389874052104
25
 energy: -6.280033233835 xtb: 6.6.1 (8d0f1dd)
C            3.24190854899872        1.18062676677410        0.08636265797564
N            2.32215396898670        0.09178056833495        0.03431131728595
C            2.61192160227205       -1.26301735376850        0.03256600163134
N            1.41420419363744       -1.93677132225064        0.00131127222914
C            0.40232098313706       -1.05247301677074       -0.00795518065692
C            0.93277617246146        0.22982480702401        0.01505130793485
C            0.12199673023215        1.39012683353328       -0.00477994421704
O            0.49062362177900        2.56718217400756       -0.00427690948836
N           -1.26620206002451        1.05312271025563       -0.03089519387608
C           -2.22339529866483        2.14907740447314       -0.04951946904163
C           -1.81497770292388       -0.19271555496842       -0.04698149379636
O           -3.01325799999740       -0.38331191588867       -0.06987241394331
N           -0.93509434082202       -1.29306300838845       -0.03695950735865
C           -1.46449385825298       -2.63675321822888       -0.06027753986169
H            3.71526780454313        1.23629902374315        1.07028918468118
H            4.01342513672535        1.05567600166742       -0.67464568139716
H            2.68957627876420        2.10481128635683       -0.09206384091484
H            3.55891336114169       -1.75879109200685        0.04046493081587
H           -1.67097621710794        3.08604598635107       -0.02506620948430
H           -2.83013943997969        2.09318661839498       -0.95345273549018
H           -2.88219149793462        2.07605054217914        0.81575174266932
H           -1.16035277103420       -3.18946020811924        0.83177952119146
H           -1.13573269829004       -3.16898986587031       -0.95620785934782
H           -2.54993756017865       -2.55256719209720       -0.07445393693281
H            1.35389691916638       -2.93926758628358       -0.01424899940197
25
 energy: -5.054854556980 xtb: 6.6.1 (8d0f1dd)
C            3.24388369831210        1.18796986873017        0.08696105866225
N            2.34145886006167        0.08101988269534        0.03335707014406
C            2.62574989855677       -1.28815044090722        0.03253470870694
N            1.40932856930659       -1.93237834755909        0.00189816248796
C            0.40545427900901       -1.04338854413929       -0.00804948822117
C            0.94653293977807        0.23433028028738        0.01441695803630
C            0.12961594820482        1.39412456708915       -0.00498259891013
O            0.48791657873681        2.57384550418159       -0.00447044712136
N           -1.26458759932675        1.05508745553512       -0.03086845104597
C           -2.22740646778490        2.14751620156160       -0.04948570288683
C           -1.81545067958508       -0.18961335900425       -0.04707531412412
O           -3.01375619175352       -0.38196285775260       -0.06992586886966
N           -0.93242520008626       -1.28566272263371       -0.03686809339992
C           -1.45785970573080       -2.63127962506492       -0.05998744534602
H            3.71540744959006        1.25285470576505        1.07142395819870
H            4.01575414526653        1.07646489719737       -0.67519433991592
H            2.67774563401586        2.10701621484539       -0.09095173188029
H            3.54023404605589       -1.86638623877276        0.03786040326811
H           -1.67896391504839        3.08608618453964       -0.02487972506926
H           -2.83538137519822        2.09070023491697       -0.95312741162315
H           -2.88777130641885        2.07321751494383        0.81516149578396
H           -1.15192160420344       -3.18342515491680        0.83183247402089
H           -1.12688215673012       -3.16301987805610       -0.95540947957833
H           -2.54365502699213       -2.55094155749204       -0.07443147596587
H            1.33701834107745       -2.93317442849983       -0.01352299591393
25
 energy: -2.555976965120 xtb: 6.6.1 (8d0f1dd)
C            3.24466307227356        1.19557122372656        0.08692188021981
N            2.36015284746205        0.07100047365035        0.03208642787963
C            2.64170405590415       -1.31293325100985        0.03374015439137
N            1.40913066624167       -1.92744475309198        0.00603604771863
C            0.41014623501906       -1.03502868677819       -0.00732581018491
C            0.95952297656821        0.23906043399411        0.01403035291391
C            0.13640870898469        1.39920362514323       -0.00502110520931
O            0.48503950468766        2.58097191338581       -0.00467876785236
N           -1.26344350113520        1.05781090135067       -0.03069733057775
C           -2.23146248125366        2.14711613357364       -0.04925871147478
C           -1.81478910107734       -0.18639949136675       -0.04714501133119
O           -3.01322950015771       -0.38067804696540       -0.07026863427058
N           -0.92885475017295       -1.27875154417133       -0.03660240896770
C           -1.45104065820053       -2.62618008329860       -0.06005730034640
H            3.71434750691583        1.26844658309322        1.07176206582474
H            4.01676940884701        1.09588876985137       -0.67595824022143
H            2.66535677089681        2.10968818102107       -0.09065604464215
H            3.51866338127077       -1.97094683471553        0.03594508899377
H           -1.68772235712169        3.08794943972944       -0.02434872418307
H           -2.84054693458199        2.08929459079631       -0.95261659778726
H           -2.89321814387050        2.07113613438623        0.81476373989885
H           -1.14373543423382       -3.17805055551791        0.83146683717040
H           -1.11802011512269       -3.15724181406086       -0.95514494057349
H           -2.53723356247831       -2.55043169407292       -0.07495128899858
H            1.32369128230942       -2.92561566012331       -0.01177996990675
25
 energy: 1.142387754984 xtb: 6.6.1 (8d0f1dd)
C            3.24449816429786        1.20241963384790        0.08667095771472
N            2.37808958215338        0.05981276263056        0.03058268955804
C            2.65646047695571       -1.34129093697069        0.03527039278365
N            1.40912949802505       -1.92499661780579        0.01329094756965
C            0.41531854613630       -1.02771355493426       -0.00582885378291
C            0.97213932842233        0.24280801992272        0.01415722903348
C            0.14175807668702        1.40416868841998       -0.00412890437551
O            0.48166059339784        2.58749983318177       -0.00341266770164
N           -1.26230462305451        1.06087943585837       -0.02993722591519
C           -2.23575189633986        2.14704077360649       -0.04962887724206
C           -1.81333088757468       -0.18332441398737       -0.04670110051069
O           -3.01184627697727       -0.37974815994269       -0.07062599859317
N           -0.92488242102028       -1.27204330607923       -0.03582642325788
C           -1.44398848314660       -2.62096301809855       -0.05988037297112
H            3.71273636992174        1.28512471256951        1.07154584552497
H            4.01693873792132        1.11692536105565       -0.67712244958479
H            2.65055439037835        2.11012529479253       -0.09025495239028
H            3.49412775450691       -2.07437869030772        0.03314364628494
H           -1.69715360914453        3.09051955804051       -0.02431889170107
H           -2.84530971005716        2.08794044046806       -0.95305463582081
H           -2.89988323568444        2.06971183486944        0.81295633345588
H           -1.13549009206016       -3.17271201617510        0.83131116631636
H           -1.10921365147838       -3.15123068786085       -0.95481945429546
H           -2.53040252588112       -2.54873272839127       -0.07513684485433
H            1.30756405927527       -2.92098837850990       -0.00957080429064
25
 energy: 6.180719334363 xtb: 6.6.1 (8d0f1dd)
C            3.24548847177864        1.20848577863656        0.08670992129582
N            2.39609138935702        0.04745394201679        0.02878267436009
C            2.67022343655073       -1.37196901244457        0.03766241151226
N            1.40925855926693       -1.92182422488485        0.02219526796634
C            0.42019194822993       -1.02082129415709       -0.00458568409601
C            0.98485698113538        0.24592290257912        0.01330330807036
C            0.14505662877322        1.40845478403808       -0.00643170413787
O            0.47625090643756        2.59336354857391       -0.00350775155498
N           -1.26094281965336        1.06343310302522       -0.02992062009256
C           -2.23994658078341        2.14580828208440       -0.04984995135635
C           -1.81169644950405       -0.18112543311903       -0.04663867466579
O           -3.01001852702676       -0.38081018299249       -0.07092494455602
N           -0.92099110108900       -1.26589681639577       -0.03528732477797
C           -1.43737365240333       -2.61599472779597       -0.05951604819380
H            3.71197005070217        1.30304393583958        1.07163701001997
H            4.01968507964724        1.13865253418420       -0.67666796561099
H            2.63739144221932        2.10898839531441       -0.09060972536383
H            3.46744909540671       -2.17764603410728        0.02953717375418
H           -1.70600451824147        3.09170695221208       -0.02416317821337
H           -2.84997347979449        2.08452046833058       -0.95316479003476
H           -2.90555684474459        2.06586824239429        0.81176990078411
H           -1.12784300913400       -3.16718989326904        0.83166466870253
H           -1.10098291044030       -3.14566940847649       -0.95424945632940
H           -2.52390478938468       -2.54593346291725       -0.07516385790620
H            1.30534175209904       -2.91500728379533       -0.00670720952541
25
 energy: 12.247652765218 xtb: 6.6.1 (8d0f1dd)
C            3.24533178575200        1.21708592727433        0.08931019038713
N            2.40947714030816        0.04342678680821        0.02918262842340
C            2.68235496502843       -1.39049453408018        0.06735313431300
N            1.41195875137390       -1.91559517455193        0.02914026291857
C            0.42529766354423       -1.01338824708628       -0.00505536223440
C            0.99461006257358        0.25105943584045        0.01204593576129
C            0.14554324678661        1.41336083201403       -0.01367940530438
O            0.46797918411290        2.60003259012200       -0.00675651428969
N           -1.26058233069312        1.06695470723627       -0.03168228845360
C           -2.24420035424585        2.14617071280787       -0.05055671372080
C           -1.80933379352043       -0.17887183236533       -0.04734435609252
O           -3.00709518001523       -0.38115194632804       -0.07058150283059
N           -0.91649335071503       -1.26016848396873       -0.03591728445894
C           -1.43014166877437       -2.61181752171765       -0.05870341886383
H            3.71232656529372        1.32080491058546        1.07337764432148
H            4.01968102072263        1.15778914003761       -0.67483376119461
H            2.62518831884976        2.11049122407556       -0.08891797767362
H            3.44042946103268       -2.27273460263995        0.02400472133312
H           -1.71246734879178        3.09309713808770       -0.02436430595877
H           -2.85547425737975        2.08466210537770       -0.95331674946846
H           -2.91051755851747        2.06473854853133        0.81070304321044
H           -1.11732269847725       -3.16229645315729        0.83176682686180
H           -1.09481127250946       -3.14164075041483       -0.95379674502614
H           -2.51688589030913       -2.54475100449146       -0.07176519641983
H            1.31054984270602       -2.90722680776681       -0.00614752709946
25
 energy: 19.853475956142 xtb: 6.6.1 (8d0f1dd)
C            3.24240570056358        1.22793481636309        0.09128560978494
N            2.41475825428274        0.04782052006937        0.03849227305811
C            2.69180569437615       -1.40201993075369        0.11412665308214
N            1.41552771456391       -1.90769151533887        0.03695419084015
C            0.42996048568258       -1.00545171162381       -0.00574722926248
C            0.99949625024790        0.25839629966920        0.01063597751828
C            0.14420975123977        1.42020330316519       -0.01935460444077
O            0.46166485505348        2.60738057928494       -0.01030974957517
N           -1.25980995826524        1.07167258078290       -0.03314216774496
C           -2.24949516817636        2.14634392317759       -0.04977456255572
C           -1.80609848879874       -0.17580715866901       -0.04814615540806
O           -3.00326250518317       -0.38037781126326       -0.07061238917549
N           -0.91159678333741       -1.25397918661053       -0.03755696574714
C           -1.42343108822656       -2.60644536861498       -0.05917353126918
H            3.70988051751529        1.34020553616723        1.07439240481134
H            4.01834287507641        1.17634100846409       -0.67300735571005
H            2.61024252549898        2.11250299046825       -0.09024541549882
H            3.42305807859626       -2.36558376072899        0.01891564945679
H           -1.72234843299406        3.09564420107194       -0.02353087616156
H           -2.86288636551474        2.08251105989630       -0.95112143344266
H           -2.91512689888892        2.06080611085095        0.81174611205278
H           -1.10846194149806       -3.15657515057229        0.83079010993591
H           -1.08860642273071       -3.13537975100044       -0.95497827816700
H           -2.51025473408840       -2.53999279956176       -0.07051778304026
H            1.31727674594436       -2.89852902911356       -0.00284400947069
25
 energy: 30.285120311459 xtb: 6.6.1 (8d0f1dd)
C            3.23892783545301        1.24049672350815        0.08691395514584
N            2.41647681830059        0.05793854300132        0.03290855791095
C            2.70197654934674       -1.40071931730041        0.13129769809442
N            1.42161965766531       -1.89668003007790        0.04456752770093
C            0.43357966163842       -0.99636285396712       -0.00309931631149
C            1.00049171739878        0.26797300510403        0.00640834373035
C            0.13901475112708        1.42904210566937       -0.01664076104519
O            0.45359740186512        2.61556148471787       -0.00474565437197
N           -1.26132483250884        1.07651265354060       -0.03108093165182
C           -2.25605134691769        2.14709553755466       -0.04923974836389
C           -1.80509968052522       -0.17357460399517       -0.04848115684944
O           -3.00137487221653       -0.38032015880920       -0.07453537448038
N           -0.90754587128863       -1.24787323492711       -0.03506409650891
C           -1.41571635189204       -2.60150541913081       -0.05947015657946
H            3.70500734937577        1.35283727936411        1.07098427528604
H            4.01898300006026        1.19728963644420       -0.67480334416131
H            2.60117220689416        2.12065301438378       -0.09412803851969
H            3.42237762422076       -2.46835217468221       -0.01530001684121
H           -1.73401195182927        3.09939391356266       -0.02318985011527
H           -2.86822074518536        2.07818670103093       -0.95102851480514
H           -2.92280641583350        2.05756937492170        0.81093214502918
H           -1.10515858489247       -3.15074678720058        0.83267906076660
H           -1.07066593906144       -3.12669822769819       -0.95349017430184
H           -2.50270058752170       -2.53796732056689       -0.07983615574620
H            1.32542393181683       -2.88751777272767        0.01064712969873
25
 energy: 48.782147795056 xtb: 6.6.1 (8d0f1dd)
C            3.22245387923470        1.27287301668385        0.08968477287192
N            2.36649608217265        0.11004262167578        0.05472757791092
C            2.67259856225496       -1.22237614499059        0.11578507902528
N            1.46596144636753       -1.84122383385108        0.04273229604936
C            0.43087734928970       -0.97070032839900       -0.00411560180759
C            0.97743845163797        0.29616943788501        0.00397496103402
C            0.10429429933868        1.45617025910967       -0.01625224871788
O            0.43189404573604        2.62454303536780       -0.00491352803880
N           -1.26415781692531        1.08950326756800       -0.03268323673820
C           -2.26594275347302        2.15188903246349       -0.05094919156555
C           -1.80464986087593       -0.18009916926214       -0.04908418322601
O           -2.99788532430254       -0.38012418063602       -0.07176317857888
N           -0.90281927021007       -1.23965266969254       -0.03645371299535
C           -1.40918467723615       -2.59828263743346       -0.05805909241781
H            3.69407535923154        1.37143803881904        1.07044100063455
H            4.00467527298699        1.20812290616310       -0.66855804866022
H            2.59580672725634        2.15295106008290       -0.09833355759664
H            3.52092483442961       -2.94463229530087       -0.06924323137169
H           -1.74289504748311        3.10352542426445       -0.02436458104318
H           -2.87469125773402        2.07923399012334       -0.95352916507198
H           -2.93157599829676        2.05831931728378        0.80844261274936
H           -1.09457939125974       -3.14475200236933        0.83291260688525
H           -1.06916540812160       -3.12480086541053       -0.95186178805849
H           -2.49658308385564       -2.53902418794153       -0.07286099235582
H            1.39026487271083       -2.84363966753401        0.00623236004704
25
 energy: 48.673538121622 xtb: 6.6.1 (8d0f1dd)
C            3.21787315252606        1.28868465532473        0.08703547900411
N            2.36143865309509        0.12688175142868        0.05017734693401
C            2.67692459569777       -1.20019796847608        0.09072389967225
N            1.47440457943633       -1.82879110555597        0.03641505050212
C            0.43320574494199       -0.96292903219591       -0.00266121078201
C            0.97265933329958        0.30610730738848        0.00723222290566
C            0.09644674926115        1.46278601681077       -0.01140822172389
O            0.42229790635209        2.63120282806746       -0.00458331270286
N           -1.26897743804836        1.09300210727192       -0.03262952868467
C           -2.27303938278575        2.15290282631467       -0.04985185712198
C           -1.80473066186925       -0.18028459503794       -0.04910426754589
O           -2.99722475680522       -0.38347547010736       -0.07196427568879
N           -0.89939267138084       -1.23510799309559       -0.03677526276166
C           -1.40216335698665       -2.59453546383103       -0.05872293528804
H            3.68647760275032        1.38811754574240        1.06954895516478
H            4.00416904446361        1.22755478654154       -0.66756255097518
H            2.59203663622185        2.16873121475062       -0.10340282987400
H            3.52034125919661       -3.07742193967382       -0.08012939504622
H           -1.75227626118557        3.10619233718597       -0.02294094290939
H           -2.88171965563832        2.07768474383418       -0.95215289252748
H           -2.93839068566444        2.05524344635159        0.80922043109013
H           -1.08625353739119       -3.13944926961520        0.83254605397332
H           -1.05949428265183       -3.11870358708404       -0.95262280207400
H           -2.48973184494771       -2.53901801874832       -0.07433556770142
H            1.40567278895433       -2.83281698101290        0.00873653989971
25
 energy: 49.005174743007 xtb: 6.6.1 (8d0f1dd)
C            3.21211144019649        1.30467286858694        0.08587465595202
N            2.35368573984812        0.14523415726648        0.04636006792921
C            2.68023363841242       -1.17578251746518        0.06997624196196
N            1.48323038162454       -1.81690791724698        0.02931711045561
C            0.43510759747648       -0.95650861995984       -0.00282530020275
C            0.96483588390835        0.31511128175994        0.00983479860777
C            0.08756679354199        1.46868635691861       -0.00616884888861
O            0.41169379034048        2.63773088622414       -0.00418149117781
N           -1.27453878577699        1.09580966475114       -0.03130550056005
C           -2.28008651164899        2.15363350747996       -0.04813088482488
C           -1.80512753279751       -0.18074155342253       -0.04873891040942
O           -2.99718126003741       -0.38624417056456       -0.07199394945104
N           -0.89652702202536       -1.23150402770263       -0.03868862530195
C           -1.39604816320118       -2.59145007467522       -0.05912870662764
H            3.67845425238415        1.40332003793466        1.06958411682258
H            4.00035588436368        1.24604604497556       -0.66637256629124
H            2.58939530810252        2.18615792683730       -0.10390587347781
H            3.51972649353456       -3.21483409608317       -0.08801194308005
H           -1.76051457365999        3.10823443037963       -0.02208699224092
H           -2.88846709299711        2.07633061129086       -0.95054451596045
H           -2.94469556687297        2.05271690827746        0.81115641064968
H           -1.07957334504431       -3.13458402912000        0.83286913722289
H           -1.05166975088710       -3.11414930411312       -0.95283770231278
H           -2.48370671104362       -2.53877589006110       -0.07553172067638
H            1.42351580575945       -2.82251051279854        0.00895388103421
25
 energy: 49.616951789220 xtb: 6.6.1 (8d0f1dd)
C            3.20512377342259        1.32064929254208        0.08586040975492
N            2.34419711532821        0.16417065055922        0.04469276857052
C            2.68258925216092       -1.15016894199972        0.05914772430887
N            1.49195536362955       -1.80545655999184        0.02440735629711
C            0.43651583520316       -0.95105983682285       -0.00368458420928
C            0.95599490402002        0.32292245627050        0.01188701055670
C            0.07832528161919        1.47352736954647       -0.00337696810582
O            0.40152994894082        2.64305530302281       -0.00462604716846
N           -1.28059397029570        1.09746433232423       -0.03145457160141
C           -2.28737016383646        2.15433431227800       -0.04709418783994
C           -1.80654537383814       -0.18128726747492       -0.04802438751042
O           -2.99880335510308       -0.38615437792124       -0.07110660738790
N           -0.89411868357916       -1.22799086142898       -0.03948987424760
C           -1.38913321528455       -2.58877563722521       -0.06084056527648
H            3.66925645994282        1.41830825534945        1.07008647169243
H            3.99433879121460        1.26286329218131       -0.66474872821567
H            2.58704150765320        2.20434770595759       -0.10341498480297
H            3.52670333268589       -3.35743196998885       -0.08648695719498
H           -1.77010031950410        3.11081087404356       -0.02102069164138
H           -2.89579712626123        2.07562637870124       -0.94897070810139
H           -2.95133038579920        2.05028030448582        0.81253010778677
H           -1.07114361978246       -3.12927692474446        0.83233734675336
H           -1.04165908037073       -3.10904602535861       -0.95415898049209
H           -2.47693996487107       -2.53937321836158       -0.07883778506501
H            1.44071800094818       -2.81261916571124        0.01019620820140
25
 energy: 50.293687639718 xtb: 6.6.1 (8d0f1dd)
C            3.19857681693714        1.33637183468744        0.08752958728813
N            2.33341527624270        0.18402387794042        0.04390424017401
C            2.68388945671702       -1.12240967207284        0.05231061342343
N            1.50084095257336       -1.79357497238577        0.01861057446328
C            0.43630381893773       -0.94648572424119       -0.00714327055268
C            0.94591650128193        0.33003571508343        0.01324152039617
C            0.06798279962164        1.47728364875233       -0.00338655069117
O            0.39005355937609        2.64745321281744       -0.00541958606845
N           -1.28793233089811        1.09851750388779       -0.03104678839943
C           -2.29431157860588        2.15477090326508       -0.04919550093460
C           -1.80948296849673       -0.18188064932856       -0.04696780659633
O           -3.00172989267389       -0.38689355958480       -0.07001960662841
N           -0.89384691757059       -1.22671199063703       -0.03923964575560
C           -1.38362313694015       -2.58737759614109       -0.06241577296905
H            3.66090918740682        1.43276557801447        1.07147401416987
H            3.98798788144671        1.27979345365770       -0.66196104958001
H            2.58814386388226        2.22322068094365       -0.09977318967041
H            3.55565910089647       -3.50242501689238       -0.06944714493662
H           -1.77822367345686        3.11203629832764       -0.02073019459487
H           -2.90171631907355        2.07465919560809       -0.95170353612761
H           -2.95768408539442        2.04950422383726        0.80986380053984
H           -1.06363212440648       -3.12532798537094        0.83121864857912
H           -1.03392743278615       -3.10457052660593       -0.95636714795461
H           -2.47143596423830       -2.54057936805821       -0.08045252565509
H            1.45800588789508       -2.80199515043960        0.01000374958425
25
 energy: 50.901511968400 xtb: 6.6.1 (8d0f1dd)
C            3.19085248214463        1.35071875932620        0.09019182867930
N            2.32099520615120        0.20303813505964        0.04419770026268
C            2.68329082020925       -1.09522900002403        0.04516501528360
N            1.50766990413676       -1.78290386596011        0.00874230159729
C            0.43382740172655       -0.94381734078590       -0.00962640027554
C            0.93457930797227        0.33627109227928        0.01468607862829
C            0.05745947460328        1.48058070241070       -0.00422500495770
O            0.37849055204143        2.65135647188197       -0.00627682196735
N           -1.29535462994915        1.09947707002200       -0.03106881949289
C           -2.29986278072059        2.15509633542322       -0.05030642705244
C           -1.81297332889132       -0.18139476716802       -0.04701037159280
O           -3.00507743395427       -0.38880482056639       -0.07011335631533
N           -0.89574461422124       -1.22679482211173       -0.03805091815933
C           -1.37948286522056       -2.58749928334555       -0.06248763758066
H            3.65237953783357        1.44698503990069        1.07306571719169
H            3.97841885970144        1.29198554772171       -0.65863184527527
H            2.59115943311379        2.24153715112465       -0.09904073968471
H            3.60440989313750       -3.63671693733957       -0.04371334187231
H           -1.78569254601271        3.11356619931245       -0.01980690641606
H           -2.90519102460598        2.07493758990272       -0.95357190077230
H           -2.96046552729854        2.05214755413758        0.81093513953918
H           -1.05495842317925       -3.12256125019989        0.83027890547105
H           -1.02588171021688       -3.10076995928576       -0.95761553462904
H           -2.46715295538014       -2.54340745309908       -0.07911410495558
H            1.47440060429032       -2.79199146828910        0.00557902067066
25
 energy: 51.402388755887 xtb: 6.6.1 (8d0f1dd)
C            3.18477186166686        1.35973526324257        0.09277650805431
N            2.30627680679243        0.21895344588672        0.04715773679536
C            2.67915454657719       -1.07157233226788        0.03875560799646
N            1.50719931374127       -1.77604774311885        0.00393778956312
C            0.42842794109108       -0.94397611773088       -0.00740009893040
C            0.92151293706511        0.34059943131392        0.01806443692414
C            0.04621848344002        1.48232143810799       -0.00349614918949
O            0.36865938859689        2.65267415821440       -0.00598262159696
N           -1.30417208707701        1.10052977058906       -0.03086746435024
C           -2.30706534583905        2.15675120455106       -0.05021004542135
C           -1.81775379528141       -0.18112747494593       -0.04703291143238
O           -3.00946231433289       -0.39130459682404       -0.07087575731091
N           -0.90105670450686       -1.22859537756723       -0.03639467763485
C           -1.38314216842026       -2.59086511261520       -0.05958700504540
H            3.64580702171364        1.45806359091498        1.07531066217786
H            3.97073065433228        1.27850099872546       -0.65638193355357
H            2.59919927070694        2.25659567129009       -0.10307842044102
H            3.68391216373009       -3.75883041206451       -0.00665048480963
H           -1.79340003488731        3.11556362578044       -0.01926309555129
H           -2.91041548700713        2.07895126887970       -0.95483323769130
H           -2.96698838228075        2.05646928477483        0.81134667658044
H           -1.05255436683671       -3.12246323223431        0.83313884195713
H           -1.02544303668209       -3.10301826034581       -0.95388355815773
H           -2.47122624242651       -2.54719772924988       -0.07545494633722
H            1.48569669725809       -2.78427575753642       -0.00163505479348
25
 energy: 51.891623939756 xtb: 6.6.1 (8d0f1dd)
C            3.18316550873950        1.36499881422827        0.09138005334484
N            2.29266247078954        0.23387802853283        0.04768004666990
C            2.67493740575128       -1.04907340622040        0.03281242801549
N            1.50437145185630       -1.76858365229955        0.00319341078229
C            0.42353177207175       -0.94256009085763       -0.00347948087601
C            0.90959281449260        0.34604594676881        0.02173020004710
C            0.03727492041469        1.48611178648220       -0.00110244585472
O            0.36786095169891        2.65523249701332       -0.00285473147680
N           -1.31175474039230        1.10340156247491       -0.03026460125476
C           -2.31399031590008        2.16001181125910       -0.05034909341925
C           -1.82254238963894       -0.17974319116635       -0.04712980815953
O           -3.01411337697877       -0.39146237799224       -0.07142580995405
N           -0.90615375350632       -1.22895088727160       -0.03538711127391
C           -1.38871087609144       -2.59350755964338       -0.05943924802091
H            3.65253940361930        1.44548694138157        1.07393113580646
H            3.96766907157994        1.26169991295862       -0.65769078500421
H            2.61127519540689        2.27043051703157       -0.10247256758358
H            3.78254950336633       -3.86615978881297        0.02116857528144
H           -1.80086301844637        3.11885297450187       -0.02049453103249
H           -2.91655380399268        2.08312602899422       -0.95535172772541
H           -2.97297668606021        2.06151007076010        0.81209858568107
H           -1.05901022387960       -3.12758399936241        0.83323201754884
H           -1.03176404589482       -3.10905235960536       -0.95267708396837
H           -2.47690592656248       -2.54964054632607       -0.07634012244739
H            1.48771910970381       -2.77558046750057       -0.00991658646810
25
 energy: 52.165207323093 xtb: 6.6.1 (8d0f1dd)
C            3.17716934722238        1.36661711674664        0.08485492261045
N            2.28337439173425        0.23732883385463        0.03944488396547
C            2.66384879572918       -1.04614618222020        0.02900952116357
N            1.49202018516858       -1.76728753411436        0.00270759655210
C            0.41433012492148       -0.93923682206928       -0.00418358644316
C            0.90107270936170        0.34946431419803        0.02068535628152
C            0.03433726672440        1.48971171246341       -0.00365967919230
O            0.36264076551780        2.65962665860411       -0.00327050702623
N           -1.31595584932153        1.10490442064909       -0.03099375422557
C           -2.31744856762956        2.16202213777017       -0.05094600487682
C           -1.82781348654616       -0.17723957332702       -0.04698214140738
O           -3.01929694748516       -0.38867652989808       -0.07075676689904
N           -0.91330329455508       -1.22765915658238       -0.03640423250245
C           -1.39474631572115       -2.59307572570764       -0.05900105433755
H            3.64713004623914        1.43386673949362        1.06771320563536
H            3.96108511355438        1.24746677321702       -0.66303722296206
H            2.61346746041325        2.27985886247188       -0.10306861554576
H            3.92299063799700       -3.89069758573908        0.02400773680735
H           -1.79872014758245        3.11763575844887       -0.02364786661146
H           -2.91920299656199        2.08482773182087       -0.95601129734809
H           -2.97504379976858        2.06343040762106        0.81207162998905
H           -1.06630752584144       -3.13129994448038        0.83228067041063
H           -1.03952947344419       -3.11127204054382       -0.95189474941214
H           -2.48274217111460       -2.54913702912432       -0.07535340463970
H            1.46806115617427       -2.77435876831917       -0.00943027778905
25
 energy: 52.264909137899 xtb: 6.6.1 (8d0f1dd)
C            3.17475015982986        1.35967225164783        0.08598671328176
N            2.27994216809693        0.23087878628735        0.04070023960253
C            2.64854476933224       -1.05785091284743        0.03453323091271
N            1.48030167425136       -1.77204521514009        0.00507669889994
C            0.40725118852010       -0.93861144852734       -0.00597234702229
C            0.90049090370665        0.34809748677774        0.01771897820836
C            0.03354457938080        1.49072652057849       -0.00318002019489
O            0.36231558940261        2.66041187243137       -0.00210156397114
N           -1.31527533543444        1.10569765694858       -0.03110275857598
C           -2.31712878511507        2.16272856755254       -0.05084566971154
C           -1.82961553835394       -0.17628021223694       -0.04702007100268
O           -3.02095917563096       -0.38611885000481       -0.07072044115782
N           -0.91842874900629       -1.22805588445633       -0.03632883451535
C           -1.40024849083091       -2.59255164086805       -0.05945857075610
H            3.64471037410612        1.42914604131262        1.06828925261279
H            3.95625189902001        1.24414873457222       -0.66351902808554
H            2.61061920719679        2.27216746424473       -0.10245476302412
H            4.05641289256167       -3.85914751660592        0.01837405258286
H           -1.79904902471447        3.11864780591782       -0.02378606716569
H           -2.91940455299652        2.08428486764233       -0.95551675786815
H           -2.97500589425056        2.06280309330328        0.81184028902787
H           -1.07216265983556       -3.13023887020678        0.83190699859640
H           -1.04531421704553       -3.10976712485091       -0.95274731590553
H           -2.48826279574851       -2.55037983280901       -0.07547581910673
H            1.45793411853002       -2.77933485191925       -0.00716251346712
