25
 energy: -42.497240150458 xtb: 6.6.1 (8d0f1dd)
C            3.17716934722238        1.36661711674664        0.08485492261045
N            2.28337439173425        0.23732883385463        0.03944488396547
C            2.66384879572918       -1.04614618222020        0.02900952116357
N            1.49202018516858       -1.76728753411436        0.00270759655210
C            0.41433012492148       -0.93923682206928       -0.00418358644316
C            0.90107270936170        0.34946431419803        0.02068535628152
C            0.03433726672440        1.48971171246341       -0.00365967919230
O            0.36264076551780        2.65962665860411       -0.00327050702623
N           -1.31595584932153        1.10490442064909       -0.03099375422557
C           -2.31744856762956        2.16202213777017       -0.05094600487682
C           -1.82781348654616       -0.17723957332702       -0.04698214140738
O           -3.01929694748516       -0.38867652989808       -0.07075676689904
N           -0.91330329455508       -1.22765915658238       -0.03640423250245
C           -1.39474631572115       -2.59307572570764       -0.05900105433755
H            3.64713004623914        1.43386673949362        1.06771320563536
H            3.96108511355438        1.24746677321702       -0.66303722296206
H            2.61346746041325        2.27985886247188       -0.10306861554576
H            3.92299063799700       -3.89069758573908        0.02400773680735
H           -1.79872014758245        3.11763575844887       -0.02364786661146
H           -2.91920299656199        2.08482773182087       -0.95601129734809
H           -2.97504379976858        2.06343040762106        0.81207162998905
H           -1.06630752584144       -3.13129994448038        0.83228067041063
H           -1.03952947344419       -3.11127204054382       -0.95189474941214
H           -2.48274217111460       -2.54913702912432       -0.07535340463970
H            1.46806115617427       -2.77435876831917       -0.00943027778905
