25
 energy: 0.000000000000 xtb: 6.6.1 (8d0f1dd)
C            3.23720132972391        1.16630909158653        0.08434468864950
N            2.29877796055224        0.07527476373246        0.03981602671198
C            2.58028186251803       -1.21425391179017        0.03006175752192
N            1.43813944744728       -1.93419254010258        0.00098261751768
C            0.39035684826767       -1.05887462812143       -0.00790371763344
C            0.93510047688824        0.21347817468824        0.01709077332874
C            0.09450143016486        1.40504290868848       -0.00410946993748
O            0.49712746915594        2.54126690785742       -0.00342325656480
N           -1.25076628431515        1.06271869620815       -0.03085477937476
C           -2.21907191394203        2.15522079838987       -0.05001256521996
C           -1.81739470187490       -0.20012724136556       -0.04692818139228
O           -2.99983858926755       -0.37846413507442       -0.07008877579474
N           -0.92618577614240       -1.30210203518959       -0.03682761236648
C           -1.46982251276835       -2.64643077634382       -0.06029819901142
H            3.71247229913541        1.21471443890471        1.06488839270555
H            4.00791460421487        1.03430799217987       -0.67357688121503
H            2.69909982127087        2.09770098766290       -0.09130154035862
H            3.56654087521359       -1.63682977417947        0.04233139674524
H           -1.67107945562430        3.09322822573871       -0.02552706696334
H           -2.82428927394145        2.09428605349656       -0.95318074103337
H           -2.87644002486466        2.07745706351925        0.81450059976605
H           -1.17061985538665       -3.19584861009707        0.83242224714061
H           -1.14560246782873       -3.17511580834413       -0.95688266944647
H           -2.55549768731684       -2.55659960601237       -0.07459039105944
H            1.38130842369251       -2.94313824728853       -0.01389874052104
25
 energy: -2.498278764737 xtb: 6.6.1 (8d0f1dd)
C            3.23890269381541        1.19617815004456        0.08606985661926
N            2.33375893733244        0.08289264061980        0.03828520525758
C            2.61873190057345       -1.27138459080414        0.03043928653392
N            1.42692679412762       -1.93191871652462        0.00132139231555
C            0.40479704775838       -1.03982373761807       -0.00770672524861
C            0.94693396853153        0.23310011266697        0.01590527120644
C            0.10073350210354        1.40796907214816       -0.00428689638486
O            0.48488337553713        2.57766718110229       -0.00343472132073
N           -1.26349087535621        1.06164821493670       -0.03075988437453
C           -2.23745901358851        2.15002088533041       -0.04995158609402
C           -1.82050376343232       -0.19186313028096       -0.04714560301270
O           -3.01574686815971       -0.38126069389437       -0.07042255838655
N           -0.92529080704341       -1.28614396982996       -0.03672060937606
C           -1.45457921388774       -2.63189429504958       -0.06002027996811
H            3.70880186509091        1.26337452578822        1.06972028644118
H            4.00875823247297        1.08351797605666       -0.67553658778959
H            2.67762416607489        2.11739348326617       -0.09166140003353
H            3.56797110172901       -1.88198160429127        0.03867585769199
H           -1.69347151842676        3.09148575360769       -0.02499607159789
H           -2.84468152027734        2.09055550960204       -0.95329124001833
H           -2.89760549934822        2.07281705709516        0.81389887406050
H           -1.14672114276879       -3.18060438784207        0.83211772032425
H           -1.12129912523682       -3.16001596450401       -0.95556461669552
H           -2.54054763169782       -2.55143327910624       -0.07474674470716
H            1.35478769904879       -2.93126740377554       -0.01315431324791
25
 energy: 14.129972570923 xtb: 6.6.1 (8d0f1dd)
C            3.23678025892350        1.23389627000317        0.08759561558809
N            2.37907174827152        0.08311522572504        0.03498584799721
C            2.66597504612708       -1.33462316741682        0.03169710665799
N            1.41253501912394       -1.91539144401942        0.00212406426026
C            0.42001525828348       -1.01366225978785       -0.00728818188224
C            0.96576408720127        0.25712526420787        0.01473858954622
C            0.11316463782863        1.40895489769919       -0.00409745421594
O            0.45555577703165        2.60467624821244       -0.00337749432079
N           -1.27622470078472        1.06389813625030       -0.03046675991278
C           -2.25771809504136        2.14710189772163       -0.04977370965773
C           -1.81715085064880       -0.18085108084555       -0.04703255043493
O           -3.01717170813019       -0.38458887332289       -0.07059975779464
N           -0.92296737068299       -1.26320293395550       -0.03639782003741
C           -1.43180257013267       -2.61267349699450       -0.05965276400185
H            3.70101800390856        1.33354100715895        1.07337916151374
H            4.01099081675313        1.15801432714371       -0.67483436158212
H            2.64297354801989        2.14045152267179       -0.09306018781866
H            3.53606242304638       -2.22865404836813        0.03249551355102
H           -1.72495782224537        3.09559363606168       -0.02410883261683
H           -2.86842077573314        2.08494664907992       -0.95238956626250
H           -2.92237725423848        2.06575738266972        0.81206279072313
H           -1.11466558822323       -3.15974429162254        0.83202207634306
H           -1.08855309050401       -3.13926052848737       -0.95415712793049
H           -2.51845548846107       -2.54638012465425       -0.07501215611627
H            1.33277299527946       -2.90901142638659       -0.01181812940091
25
 energy: 36.463131290946 xtb: 6.6.1 (8d0f1dd)
C            3.22702746229650        1.25834208748514        0.08777395618990
N            2.40759694905622        0.06898107521940        0.03173027069908
C            2.69478605524937       -1.38975945165220        0.03305831348104
N            1.40711822173949       -1.91013693564355        0.00317347463380
C            0.42993241082674       -0.99917936120223       -0.00687038231984
C            0.98289873531042        0.26848639971614        0.01418976985282
C            0.12579633325693        1.41775210681152       -0.00368274371563
O            0.43789783352800        2.61870946046773       -0.00310046567272
N           -1.27884197749668        1.07564658588843       -0.03007767388771
C           -2.27208371170182        2.14986381299043       -0.04942747663843
C           -1.81165698217328       -0.17046530187294       -0.04676099876072
O           -3.01076053722801       -0.38336036275027       -0.07061111281977
N           -0.91528762320611       -1.24450711215034       -0.03590561480178
C           -1.40962965853213       -2.59670635284478       -0.05928597276174
H            3.68533208591758        1.39486544275111        1.07401240886449
H            4.00987181364747        1.22862737415954       -0.67172285777504
H            2.60307665343738        2.14865182522258       -0.09589178914668
H            3.50067088527152       -2.49324517905358        0.02660046549903
H           -1.75643546705703        3.10702103290266       -0.02289250207363
H           -2.88529298315769        2.07997567238591       -0.95091453259126
H           -2.94024287908878        2.05903186585233        0.80999848506803
H           -1.08483485928138       -3.13812252896373        0.83296999385783
H           -1.05786725902691       -3.11757849374146       -0.95374666837689
H           -2.49683420547903       -2.54107894046645       -0.07530748836510
H            1.31997700886367       -2.90278593276735       -0.01027494624454
25
 energy: 50.842888908561 xtb: 6.6.1 (8d0f1dd)
C            3.21852549272721        1.27107828814141        0.08737619237723
N            2.41564436303535        0.06588802117558        0.03019758397673
C            2.70536121241324       -1.41080668701011        0.03608480757013
N            1.41075022263724       -1.90545020868023        0.00475642583728
C            0.43391568958093       -0.99196489289270       -0.00624612949107
C            0.99019388126518        0.27445617399887        0.01425242098440
C            0.13020497933827        1.42821080010019       -0.00389797950896
O            0.42909631726150        2.62485508784957       -0.00310117993882
N           -1.27766968425455        1.08440956062224       -0.02992740969042
C           -2.27774687833334        2.15276386427109       -0.04912457388332
C           -1.80930560652919       -0.16614098969274       -0.04659087887193
O           -3.00591111693481       -0.38230257109513       -0.07060714478326
N           -0.90872258568773       -1.23565249596129       -0.03551881503469
C           -1.39812082848592       -2.59007638752243       -0.05923854105971
H            3.67063044671007        1.41937746575197        1.07355584087241
H            4.00314175658438        1.25961664689831       -0.66874869503424
H            2.58321838010351        2.15207313705306       -0.09925370226175
H            3.48992311644547       -2.63447318895402        0.02118043724196
H           -1.77269745233207        3.11469506218580       -0.02196001383125
H           -2.89100853354966        2.07752576822432       -0.95047379057333
H           -2.94645637156975        2.05531424226129        0.80951181963124
H           -1.07093317283978       -3.12819430061635        0.83335909798724
H           -1.04329951430646       -3.10738992209223       -0.95378732982074
H           -2.48559855677602       -2.54032137682113       -0.07572678582453
H            1.31907874846938       -2.89846230845131       -0.00903774467601
25
 energy: 61.351540171007 xtb: 6.6.1 (8d0f1dd)
C            3.21521255904376        1.28222291952861        0.08686589001360
N            2.41507914908181        0.07479935152034        0.03168188356426
C            2.70936249152367       -1.41074726786782        0.05046091682824
N            1.41769286915014       -1.89581833775295        0.00988705886715
C            0.43481846194767       -0.98567659891870       -0.00490648184441
C            0.99188709485341        0.28105037823494        0.01413771642431
C            0.12846986954220        1.43793435507674       -0.00683303319083
O            0.41864170739933        2.63020474391500       -0.00408706783504
N           -1.27754818210962        1.08799534152230       -0.03039502691590
C           -2.28096427661184        2.15323901211265       -0.04854835120729
C           -1.81001854800181       -0.16650370494211       -0.04701140777052
O           -3.00410087139983       -0.38356694717887       -0.07087825989076
N           -0.90466681260845       -1.23203756740415       -0.03599349679047
C           -1.39356741513639       -2.58832128614808       -0.06004201599965
H            3.66337316494972        1.43022500136969        1.07302537299043
H            3.99922194798847        1.27173127595761       -0.66635253079911
H            2.58015909737740        2.15985170601747       -0.10235123210534
H            3.49541385663064       -2.74397247633357        0.00569699077782
H           -1.78027360340351        3.11660452436909       -0.02099624266224
H           -2.89383253681173        2.07644152420384       -0.94999321563063
H           -2.94908384325943        2.05314973955734        0.81015742706008
H           -1.06679247472931       -3.12533833302338        0.83262391005450
H           -1.03866248428160       -3.10417104579483       -0.95465363088885
H           -2.48118295356174       -2.54085348170508       -0.07685265750707
H            1.32357603739947       -2.88941403757205       -0.00760860334772
25
 energy: 66.266347859418 xtb: 6.6.1 (8d0f1dd)
C            3.20594814009374        1.30911513787054        0.08414226031271
N            2.41046097214396        0.09839536786059        0.04629143838682
C            2.72151227915566       -1.40291938713077        0.12768958936182
N            1.43692602700234       -1.86764386081330        0.03127764981488
C            0.43850698000622       -0.96898971392332       -0.00189641398482
C            0.99223568822718        0.29904065766482        0.00907372464676
C            0.12231991359018        1.45662586330836       -0.02393956669979
O            0.39443557660639        2.64158019774431       -0.00648872689198
N           -1.28161775619326        1.09543930851452       -0.03244447999908
C           -2.28959509917481        2.15517076059144       -0.04597631179853
C           -1.81107383647192       -0.16724159483240       -0.04919291457293
O           -3.00131083045838       -0.38794079097491       -0.07163282307994
N           -0.89740541430799       -1.22432880085341       -0.04055350092788
C           -1.38388271112091       -2.58466438892211       -0.06347043583798
H            3.64962866552684        1.45116084794150        1.07013475930440
H            3.99066708330272        1.29137575748132       -0.66213304442601
H            2.57524346390925        2.18338703581960       -0.10951678291271
H            3.50446341849510       -3.00769823147190       -0.06683853577244
H           -1.79407965879605        3.12004569816180       -0.01799920939700
H           -2.90137404377603        2.07534241495372       -0.94787468476509
H           -2.95618260267779        2.04976644054004        0.81305719366797
H           -1.05828036934251       -3.12059365592633        0.82921560615402
H           -1.02960353446181       -3.09927138844824       -0.95791944248721
H           -2.47213217508552       -2.54188547509400       -0.08065698179612
H            1.34640412877986       -2.86423941131783       -0.00531445410533
25
 energy: 67.772643156159 xtb: 6.6.1 (8d0f1dd)
C            3.19484464114573        1.33829652516430        0.08819355732376
N            2.39408487230755        0.13441030618756        0.04711536690076
C            2.73251997829182       -1.36778665642474        0.13000166912957
N            1.46500856557272       -1.82969320678876        0.03612016388417
C            0.44079682114512       -0.94947475212031       -0.00476161052222
C            0.98701204368352        0.31859266893809        0.00733384275004
C            0.10807539324546        1.47665222464845       -0.01857364438571
O            0.36944166434937        2.64903718565946       -0.00684093612269
N           -1.28615747026877        1.10322364893366       -0.03207189119636
C           -2.29821548208509        2.15724305673805       -0.04818463635745
C           -1.81198880398773       -0.17022959320127       -0.04969891460424
O           -2.99881454403297       -0.39208995574078       -0.07216048648478
N           -0.89032849747827       -1.21817340249789       -0.04113375306095
C           -1.37592280633215       -2.58274434172294       -0.06238802526097
H            3.64210547055871        1.46423653250167        1.07113244662416
H            3.97751618029553        1.30423713677423       -0.65704392324119
H            2.57481740183978        2.21305050221010       -0.10761817167367
H            3.51786385281635       -3.31332251277816       -0.09012026284580
H           -1.80632701695696        3.12321661112585       -0.01940012940162
H           -2.90770387091079        2.07357001819644       -0.95083467961113
H           -2.96325819135720        2.04776976743230        0.81093184375683
H           -1.05140446825339       -3.11755617446635        0.83028400642476
H           -1.02314465464063       -3.09728904734072       -0.95629525791403
H           -2.46497218417866       -2.54357221046411       -0.07944672484449
H            1.38636541020343       -2.83257554222010        0.00249406292787
25
 energy: 59.267050976117 xtb: 6.6.1 (8d0f1dd)
C            3.18518752168954        1.35506747861040        0.09695397435605
N            2.33367116160455        0.19666354036780        0.04671533945197
C            2.71466345431226       -1.23045479988029        0.06768500228498
N            1.50853859975983       -1.78616865073810        0.02566195492818
C            0.43385371255953       -0.93806912474185       -0.01318930613440
C            0.96309624184128        0.32878685775483        0.00849998101900
C            0.07657036335566        1.48920860955245        0.00044257594702
O            0.36643754817449        2.64655849011187       -0.00649600720921
N           -1.28626033927617        1.10418336571289       -0.03187669068165
C           -2.29973246297050        2.15606663374398       -0.05263394674853
C           -1.81303552998083       -0.18016312491340       -0.04921497708220
O           -3.00044209302137       -0.38966555120202       -0.07144702095806
N           -0.89158479318686       -1.22497132063246       -0.03907668389149
C           -1.38144414124297       -2.59000805224462       -0.05880389040255
H            3.65108169794990        1.45161731513211        1.07567476102843
H            3.96869270538619        1.27905775730855       -0.65711671456242
H            2.58557572373532        2.23907926722168       -0.10039890023904
H            3.57583038057445       -3.58183629821139       -0.06004644739754
H           -1.80360631189108        3.12142420488837       -0.02380061896037
H           -2.90743905769646        2.07287399833545       -0.95477739074267
H           -2.96240077288017        2.04903541395150        0.80710922948730
H           -1.05606929978427       -3.12366895058153        0.83417053011926
H           -1.02865478661341       -3.10521165521291       -0.95224814794273
H           -2.47051460333449       -2.54591174963763       -0.07530176731308
H            1.45019938590808       -2.80446486595163        0.01054907383830
25
 energy: 53.335678844469 xtb: 6.6.1 (8d0f1dd)
C            3.18211404977987        1.35958720584703        0.09242829684459
N            2.28766670542870        0.23340778498020        0.05194471957337
C            2.69485546261992       -1.08348273998131        0.03804309727160
N            1.53032251186466       -1.76756482357058        0.01500486683772
C            0.42445285367661       -0.93946852557516       -0.01050829516410
C            0.93989706174710        0.32962056334552        0.01236508306119
C            0.04704752727048        1.48999452016336       -0.00271601006905
O            0.37351863104197        2.65156814845948       -0.00673381398825
N           -1.28830137409089        1.10215463402946       -0.03344056228924
C           -2.30318390684481        2.15459762048727       -0.05049828967687
C           -1.81446011004488       -0.18741108528432       -0.04734254220615
O           -3.00542656162369       -0.38471140546674       -0.06996473768747
N           -0.90061819188069       -1.23279036912035       -0.03589121854854
C           -1.39049180632979       -2.59595010191419       -0.05995618842363
H            3.65512205253128        1.43984154083254        1.07226330893280
H            3.96841409815930        1.25258712100244       -0.66269267400046
H            2.60324081137467        2.26002175068285       -0.10357691476510
H            3.67975629189094       -3.75934741897185       -0.01021188228416
H           -1.80039744807352        3.11872426714234       -0.02325990952820
H           -2.91004396908246        2.07452482212134       -0.95229508405324
H           -2.96367919078461        2.05175728694567        0.81078140767673
H           -1.06342998635754       -3.13079036846237        0.83241198927460
H           -1.03510068453022       -3.11075232211459       -0.95351329932340
H           -2.47854474441205       -2.54838335462486       -0.07667626101355
H            1.47948422164212       -2.78870596220915        0.00106882574335
25
 energy: 52.991072079362 xtb: 6.6.1 (8d0f1dd)
C            3.17935210232583        1.36605573431338        0.08653537082812
N            2.28098538034173        0.24059679040653        0.04573902475482
C            2.69498304725393       -1.02284632078703        0.02805378323927
N            1.53421483826023       -1.76459653889806        0.00491935043063
C            0.42441455320792       -0.94339501688309       -0.00798120318883
C            0.92167791436795        0.33617087746071        0.01583158365895
C            0.03095296059431        1.48877243572000       -0.00084512798737
O            0.37151278279475        2.65460500281801       -0.00073203910872
N           -1.29994769455873        1.10386922771050       -0.03160045011289
C           -2.31118460694649        2.15843104572521       -0.05116639365653
C           -1.81715655164101       -0.18797031597136       -0.04638853914124
O           -3.00922940552868       -0.38629722228030       -0.07027787970389
N           -0.90504777172569       -1.23383860532131       -0.03447238701792
C           -1.39516187732250       -2.59591355446651       -0.05891485140009
H            3.64994048814243        1.43378270017372        1.06832653774648
H            3.96154923042905        1.24702991567634       -0.66480445307493
H            2.61487944358987        2.27886711926995       -0.10272416375451
H            3.77757877715319       -3.86809912634762        0.01963647343325
H           -1.79928493045588        3.11795353245391       -0.02404103953267
H           -2.91454918882798        2.07975272834490       -0.95530427127016
H           -2.97046020746151        2.05815591849788        0.81077955897251
H           -1.06935943293559       -3.13348792677522        0.83273592729795
H           -1.04237495323631       -3.11309774291044       -0.95233511628759
H           -2.48304751142685       -2.54873454458031       -0.07476825643240
H            1.48697691857847       -2.77673732460572       -0.00916752649763
25
 energy: 52.804618587197 xtb: 6.6.1 (8d0f1dd)
C            3.17616090246275        1.37016195879361        0.08472041789161
N            2.28468454986238        0.23775744275481        0.04027533777274
C            2.69575404175122       -1.02111124762161        0.02631356592864
N            1.52337767372421       -1.76924472360022        0.00238900185430
C            0.42652250676707       -0.94576441336224       -0.00535395537017
C            0.90938423928804        0.34363714691593        0.01858437847070
C            0.02899206892651        1.48834490224851       -0.00297597790710
O            0.36874717395448        2.65704728914603       -0.00117510538101
N           -1.30868942607870        1.10590135450693       -0.03128030729022
C           -2.31549143000357        2.16150543520693       -0.05074669012200
C           -1.81837656830844       -0.18424363536768       -0.04656274296931
O           -3.01022102013808       -0.38814159570354       -0.07040265754831
N           -0.90573449860728       -1.23151714696540       -0.03465879573861
C           -1.39560524137613       -2.59363878412139       -0.05899063898226
H            3.64433055450785        1.43540603460936        1.06790553673070
H            3.95637066419293        1.25015545823266       -0.66345936406533
H            2.61306174394324        2.28420084350243       -0.10232659921505
H            3.84921888142209       -3.90499048092152        0.02663352136585
H           -1.79862769409580        3.11825821445016       -0.02406339698216
H           -2.91795279037563        2.08241205010196       -0.95528837142363
H           -2.97284939561437        2.06103255252674        0.81227584782252
H           -1.07074949278787       -3.13282879516977        0.83238555617287
H           -1.04358524870681       -3.11210947058050       -0.95235172782867
H           -2.48391942364282       -2.54858579332606       -0.07515417679672
H            1.47741153390516       -2.77461580751215       -0.00965874419483
25
 energy: 52.790931659413 xtb: 6.6.1 (8d0f1dd)
C            3.17551101607409        1.36754631586506        0.08415996150976
N            2.28673676869658        0.23203285774249        0.03666967762454
C            2.68350655514278       -1.03183931668218        0.02749303607635
N            1.49891986177751       -1.77516212409337        0.00243611547471
C            0.42501656623124       -0.94661385509786       -0.00233627549342
C            0.89578058920744        0.35144536225795        0.02260333811630
C            0.03156400927646        1.48785176166995       -0.00244363296131
O            0.36661599812541        2.65887181881166       -0.00144626169905
N           -1.31705969619223        1.10722748652479       -0.03026355836687
C           -2.31891628660612        2.16308250659255       -0.05113109369396
C           -1.82134810772247       -0.17759192993636       -0.04705628148563
O           -3.01304080894243       -0.38931919909164       -0.07151955698259
N           -0.90787442829522       -1.22814012330433       -0.03566478079129
C           -1.39588188303040       -2.59126879504580       -0.05904921908356
H            3.64294750854561        1.43350937931325        1.06816869869275
H            3.95599621552829        1.24892343257503       -0.66238486650895
H            2.61076532968362        2.27947387536446       -0.10243914874707
H            3.94659124134781       -3.89755998793312        0.02346574559584
H           -1.79910488453984        3.11818602117056       -0.02371487709170
H           -2.92002648408487        2.08362562719086       -0.95631474405875
H           -2.97633830952029        2.06201297112992        0.81144676894670
H           -1.07005509408744       -3.13086477490277        0.83222096731544
H           -1.04332462640051       -3.11024506754724       -0.95248823446252
H           -2.48456846413487       -2.54900899062580       -0.07508616198557
H            1.45980171889227       -2.77714646320400       -0.00829170374564
25
 energy: 52.628456051979 xtb: 6.6.1 (8d0f1dd)
C            3.17509748083424        1.36351893536171        0.08524163581730
N            2.28631389920330        0.22799380177569        0.03762797665454
C            2.66922899197694       -1.04602572757299        0.03208252050841
N            1.48377028461621       -1.77723129723925        0.00283604905697
C            0.41976183867612       -0.94585442547908       -0.00340766936633
C            0.89293850474999        0.35185566598219        0.02115789046610
C            0.03516224110568        1.48848773086228       -0.00512036131727
O            0.36356353073425        2.66006248702577       -0.00394944583648
N           -1.31920822682052        1.10654746476388       -0.03115424385603
C           -2.31857942170900        2.16329767847506       -0.05033514411294
C           -1.82492038254562       -0.17445487043220       -0.04752532484160
O           -3.01618263494629       -0.38977504492955       -0.07066320358722
N           -0.91109511362646       -1.22741119131039       -0.03733380200964
C           -1.39807691420220       -2.59109979190005       -0.05943749584356
H            3.64264771384803        1.43272450384643        1.06889354726306
H            3.95689126332955        1.24800444544056       -0.66194069962861
H            2.60874084146652        2.27379540396075       -0.10298402706404
H            4.00935744054924       -3.87284236649999        0.02202889317014
H           -1.79836443391467        3.11813158604980       -0.02347451484845
H           -2.92128657736637        2.08531426849014       -0.95458924492780
H           -2.97543230442745        2.06343418922801        0.81296048596430
H           -1.07148478586833       -3.12987738812384        0.83199878276070
H           -1.04521941591096       -3.10982173802502       -0.95290144673060
H           -2.48646495917783       -2.54845834294358       -0.07526783990846
H            1.45505544439810       -2.78128718806227       -0.00770940558786
25
 energy: 52.346188485079 xtb: 6.6.1 (8d0f1dd)
C            3.17515785233450        1.35903702557377        0.08580035834594
N            2.28334021690128        0.22674230724224        0.03972330154983
C            2.65405620529557       -1.05675605424326        0.03408734430595
N            1.47591313091054       -1.77527782429454        0.00432986660096
C            0.41159725029152       -0.94232009517342       -0.00459590860643
C            0.89576824098646        0.34969583543537        0.01980325331560
C            0.03731429042770        1.49061207126205       -0.00247555854583
O            0.36153473858040        2.66122829778795       -0.00187495586226
N           -1.31802715625279        1.10606327481077       -0.03060524678698
C           -2.31783907111718        2.16290580015210       -0.05106234821592
C           -1.82888271056202       -0.17307887660336       -0.04705965069801
O           -3.01964579568092       -0.38805907045400       -0.07102047119658
N           -0.91566110642546       -1.22709288106977       -0.03712090679420
C           -1.39959630477047       -2.59182776229745       -0.05937684882167
H            3.64473982906604        1.42911525254418        1.06809021095695
H            3.95684417442326        1.24521904686771       -0.66366299539760
H            2.60950849331032        2.27005141621494       -0.10250165621053
H            4.04913421307100       -3.85347244597968        0.01764704636988
H           -1.79953399698997        3.11879947571250       -0.02362432838232
H           -2.91981151768008        2.08485489258296       -0.95606412240409
H           -2.97647536580940        2.06333048094186        0.81122020073835
H           -1.07146460133500       -3.12943194457354        0.83201924995953
H           -1.04464470698656       -3.10921332690427       -0.95266298154130
H           -2.48768833297236       -2.54989584170372       -0.07543996569756
H            1.45657633595608       -2.78220026508738       -0.00653897478711
25
 energy: 52.261571103512 xtb: 6.6.1 (8d0f1dd)
C            3.17444067007252        1.35872306897682        0.08661887555683
N            2.28094540715502        0.22833494965038        0.04090518287172
C            2.64819849802847       -1.05952327142918        0.03518518184654
N            1.47710320631769       -1.77282882342815        0.00462409681229
C            0.40740273250952       -0.93980121925471       -0.00648757836190
C            0.89958627919288        0.34781844324155        0.01677353334443
C            0.03691251817462        1.49117011662183       -0.00497176573395
O            0.36115514351568        2.66091823264492       -0.00379094267395
N           -1.31587898188799        1.10531270561691       -0.03197793005746
C           -2.31663076738849        2.16255371067408       -0.05023195007952
C           -1.83021018752548       -0.17445423238449       -0.04759769892526
O           -3.02090212990332       -0.38722109975133       -0.07032326600663
N           -0.91793625149195       -1.22776042285487       -0.03735014413867
C           -1.40054564750758       -2.59253933435099       -0.05945418293434
H            3.64378424575931        1.42962913220874        1.06895040262111
H            3.95686100506144        1.24458573624326       -0.66263915556389
H            2.60964086138557        2.27055386939205       -0.10282569207978
H            4.05764410897267       -3.85285245581345        0.01888434407728
H           -1.79872907380092        3.11859165150222       -0.02343881338598
H           -2.92021982163716        2.08496497525949       -0.95421755671008
H           -2.97392508975296        2.06290983829131        0.81313400481305
H           -1.07219095699382       -3.12961157928165        0.83207120533424
H           -1.04565435831821       -3.10983468619377       -0.95262673616506
H           -2.48838696025582       -2.54990986486739       -0.07536252627520
H            1.45974985529076       -2.78070065196948       -0.00681697599124
25
 energy: 52.260383865427 xtb: 6.6.1 (8d0f1dd)
C            3.17481501515311        1.35896408627211        0.08594581739480
N            2.28009538248484        0.22990786563628        0.04101553307767
C            2.64763713055188       -1.05849095691305        0.03433163086488
N            1.47898134130636       -1.77177842166976        0.00515691377454
C            0.40655749988416       -0.93859741093690       -0.00586701413175
C            0.90079022573503        0.34781021807064        0.01789119202718
C            0.03527660575580        1.49125106448488       -0.00208138965281
O            0.36135368786994        2.66085231101925       -0.00127553371095
N           -1.31531980576391        1.10546846166155       -0.03082746304050
C           -2.31697796350738        2.16257279624144       -0.05113682374871
C           -1.83022265674972       -0.17535920441930       -0.04684117457885
O           -3.02111439048461       -0.38652043988895       -0.07089382978463
N           -0.91851541837928       -1.22786224151094       -0.03627622844926
C           -1.40025293755518       -2.59264509708817       -0.05939645161127
H            3.64523538301248        1.42852116422645        1.06790671546887
H            3.95624409385254        1.24397615405004       -0.66401777320935
H            2.61075865810314        2.27158205457165       -0.10231605893722
H            4.05635433591957       -3.85688888587757        0.01761359629559
H           -1.79947324701741        3.11882620536203       -0.02384530457749
H           -2.91898163439892        2.08419807924762       -0.95610786923976
H           -2.97558291180897        2.06286820587534        0.81113882433005
H           -1.07191910769925       -3.13007012038296        0.83195112902132
H           -1.04490930010386       -3.10956945766640       -0.95264093061548
H           -2.48819768565954       -2.55054968679706       -0.07548751763718
H            1.45958200447166       -2.77943795482419       -0.00690607713510
25
 energy: 52.264393510694 xtb: 6.6.1 (8d0f1dd)
C            3.17466083795705        1.35951926800336        0.08627147838824
N            2.27986919613713        0.23066998537258        0.04077870882438
C            2.64814543655625       -1.05780209089215        0.03435155090711
N            1.48006808806725       -1.77176684999002        0.00501658460436
C            0.40680059254710       -0.93848001254903       -0.00634282756946
C            0.90085373422633        0.34791558993225        0.01706792871243
C            0.03427436432154        1.49093205659047       -0.00394075975638
O            0.36190821805112        2.66054594711271       -0.00277191038591
N           -1.31514983827282        1.10553988830171       -0.03160369260273
C           -2.31696270520331        2.16267257520299       -0.05059912968642
C           -1.82988056474990       -0.17597594961148       -0.04741639149875
O           -3.02102789261728       -0.38628381373362       -0.07070133435801
N           -0.91851367951604       -1.22803816195179       -0.03659085521506
C           -1.40025801851215       -2.59263663760995       -0.05935217914568
H            3.64437620356202        1.42904893523074        1.06867230011191
H            3.95646285279489        1.24411566137219       -0.66306113971306
H            2.61059274781460        2.27208124673630       -0.10233809225661
H            4.05589239146789       -3.85919441060627        0.01850387075744
H           -1.79907381610647        3.11869916399704       -0.02355626273997
H           -2.91972963137431        2.08448304477275       -0.95499569799873
H           -2.97451265522872        2.06258543419435        0.81237684303250
H           -1.07201786668184       -3.13000165923180        0.83212515084465
H           -1.04525401479021       -3.10995705576525       -0.95251168705946
H           -2.48824211303793       -2.55045414659327       -0.07535089059710
H            1.45893243756031       -2.77918921954078       -0.00699765340509
25
 energy: 52.264909137899 xtb: 6.6.1 (8d0f1dd)
C            3.17475015982986        1.35967225164783        0.08598671328176
N            2.27994216809693        0.23087878628735        0.04070023960253
C            2.64854476933224       -1.05785091284743        0.03453323091271
N            1.48030167425136       -1.77204521514009        0.00507669889994
C            0.40725118852010       -0.93861144852734       -0.00597234702229
C            0.90049090370665        0.34809748677774        0.01771897820836
C            0.03354457938080        1.49072652057849       -0.00318002019489
O            0.36231558940261        2.66041187243137       -0.00210156397114
N           -1.31527533543444        1.10569765694858       -0.03110275857598
C           -2.31712878511507        2.16272856755254       -0.05084566971154
C           -1.82961553835394       -0.17628021223694       -0.04702007100268
O           -3.02095917563096       -0.38611885000481       -0.07072044115782
N           -0.91842874900629       -1.22805588445633       -0.03632883451535
C           -1.40024849083091       -2.59255164086805       -0.05945857075610
H            3.64471037410612        1.42914604131262        1.06828925261279
H            3.95625189902001        1.24414873457222       -0.66351902808554
H            2.61061920719679        2.27216746424473       -0.10245476302412
H            4.05641289256167       -3.85914751660592        0.01837405258286
H           -1.79904902471447        3.11864780591782       -0.02378606716569
H           -2.91940455299652        2.08428486764233       -0.95551675786815
H           -2.97500589425056        2.06280309330328        0.81184028902787
H           -1.07216265983556       -3.13023887020678        0.83190699859640
H           -1.04531421704553       -3.10976712485091       -0.95274731590553
H           -2.48826279574851       -2.55037983280901       -0.07547581910673
H            1.45793411853002       -2.77933485191925       -0.00716251346712
