25
 energy: 0.000000000000 xtb: 6.6.1 (8d0f1dd)
C            3.23720163006194        1.16630919979326        0.08434469647475
N            2.29877817382611        0.07527477071623        0.03981603040599
C            2.58028210190900       -1.21425402444508        0.03006176031096
N            1.43813958087363       -1.93419271955128        0.00098261760884
C            0.39035688448383       -1.05887472636071       -0.00790371836672
C            0.93510056364412        0.21347819449412        0.01709077491437
C            0.09450143893243        1.40504303904423       -0.00410947031874
O            0.49712751527797        2.54126714362870       -0.00342325688240
N           -1.25076640035757        1.06271879480407       -0.03085478223738
C           -2.21907211982101        2.15522099834493       -0.05001256985998
C           -1.81739487048744       -0.20012725993278       -0.04692818574614
O           -2.99983886758376       -0.37846417018721       -0.07008878229737
N           -0.92618586207120       -1.30210215599479       -0.03682761578324
C           -1.46982264913417       -2.64643102187190       -0.06029820460571
H            3.71247264356769        1.21471455160235        1.06488849150277
H            4.00791497605742        1.03430808813993       -0.67357694370751
H            2.69910007168542        2.09770118228144       -0.09130154882931
H            3.56654120610678       -1.63682992603973        0.04233140067262
H           -1.67107961066214        3.09322851271934       -0.02552706933167
H           -2.82428953597071        2.09428624779827       -0.95318082946668
H           -2.87644029173232        2.07745725625962        0.81450067533302
H           -1.17061996399332       -3.19584890659852        0.83242232437030
H           -1.14560257411436       -3.17511610292205       -0.95688275822323
H           -2.55549792440841       -2.55659984320617       -0.07459039797972
H            1.38130855184625       -2.94313852034425       -0.01389874181052
25
 energy: -3.949947652711 xtb: 6.6.1 (8d0f1dd)
C            3.24079688530832        1.19124594088504        0.08627637050732
N            2.32937872521027        0.08378419546691        0.03806740794836
C            2.61352406483164       -1.26521798417294        0.03029700701597
N            1.42536756334634       -1.93539076427490        0.00119056344952
C            0.40311850275986       -1.04327119323157       -0.00786320778616
C            0.94462520167512        0.23038205919754        0.01563911484730
C            0.10217916355549        1.40533549011928       -0.00452049911015
O            0.48905501755581        2.57441438451824       -0.00366064809926
N           -1.26216690508751        1.05949828887231       -0.03080199116116
C           -2.23427080449726        2.14880720827013       -0.04989365475707
C           -1.82106151657009       -0.19319224639123       -0.04718976502260
O           -3.01675160489745       -0.38103162606551       -0.07042575363637
N           -0.92703290243963       -1.28846025918761       -0.03678893973863
C           -1.45724115130511       -2.63346470910720       -0.06004498997807
H            3.71213787734744        1.25660774913692        1.06974025663777
H            4.01066086030693        1.07687130637625       -0.67586119123583
H            2.68039876666087        2.11195085816028       -0.09104265188683
H            3.56753143816795       -1.83084618546846        0.03955184081034
H           -1.68749086133818        3.08855875184083       -0.02500668058803
H           -2.84142481830183        2.09040381309345       -0.95331402997393
H           -2.89423338357422        2.07283212564678        0.81417515911489
H           -1.14948152783329       -3.18224929175560        0.83209579588661
H           -1.12410493794422       -3.16167870896493       -0.95560149248356
H           -2.54304192770925       -2.55119831560133       -0.07472543381822
H            1.35174294270817       -2.93566228519064       -0.01325869079488
25
 energy: 5.118748749069 xtb: 6.6.1 (8d0f1dd)
C            3.24197052466086        1.22124165983724        0.08799763189488
N            2.37062074322538        0.08225490359716        0.03424270388587
C            2.65006169463585       -1.32460716205191        0.03129655008769
N            1.40638014139693       -1.92535054545219        0.00192458837309
C            0.41648350404135       -1.02053893160073       -0.00766488937079
C            0.96239214149984        0.25065753030156        0.01383495117000
C            0.11702817081305        1.40277814577333       -0.00471522086444
O            0.46605571526079        2.59693829626830       -0.00397222256684
N           -1.27265896065002        1.05942298487711       -0.03049923317051
C           -2.25092296445936        2.14398048963510       -0.04958738690135
C           -1.81781710729673       -0.18298795761042       -0.04712557144148
O           -3.01852039871795       -0.38377084892697       -0.07062629618218
N           -0.92587322850902       -1.26697880359674       -0.03649546119727
C           -1.43575086297214       -2.61515418350210       -0.05967227736427
H            3.70883683482037        1.32035502213445        1.07333601653008
H            4.01659919928843        1.14616104456480       -0.67562807125255
H            2.64746653378076        2.12581938525557       -0.09129394792298
H            3.53367989417713       -2.10934352727130        0.03450602346795
H           -1.71298114083899        3.08928071021167       -0.02401672933659
H           -2.86174652038735        2.08367364475009       -0.95213249014281
H           -2.91547991106639        2.06474128600052        0.81241047029294
H           -1.11814925541282       -3.16199575205211        0.83201902723365
H           -1.09204176475560       -3.14155356156954       -0.95415494112217
H           -2.52206039116496       -2.54595113077869       -0.07500534842597
H            1.31864207656680       -2.92004409662218       -0.01194397952666
25
 energy: 15.717806576504 xtb: 6.6.1 (8d0f1dd)
C            3.23486848016417        1.23670866880586        0.08812927879204
N            2.39430970076117        0.06674419330340        0.03076850420691
C            2.66695277318588       -1.36895851899532        0.03228920172788
N            1.39763982155491       -1.92468720958353        0.00293263981125
C            0.42342822109848       -1.01038057547848       -0.00742965712462
C            0.97805324384230        0.25697335162740        0.01276824773237
C            0.13111648034310        1.40740510003380       -0.00467244763980
O            0.45627055272398        2.60528961629095       -0.00414131135581
N           -1.27216637930801        1.06822376050254       -0.03013907168605
C           -2.25932265351025        2.14550654590705       -0.04913063647654
C           -1.81242361878374       -0.17431719129572       -0.04689925104564
O           -3.01227454753405       -0.38188645076565       -0.07067815578785
N           -0.92013571110646       -1.25182091574457       -0.03601417853980
C           -1.41648472299138       -2.60246545727665       -0.05930828022982
H            3.69680199876423        1.36826786112792        1.07366552411880
H            4.01738449408601        1.20422058031311       -0.67283690294871
H            2.61119472858983        2.12502814098758       -0.09304079801419
H            3.49169859444179       -2.28587095113264        0.02982350761731
H           -1.73575737846010        3.09807849352157       -0.02272645661404
H           -2.87228907497065        2.07798554757867       -0.95061518676472
H           -2.92683287361079        2.05740983061198        0.81071861865346
H           -1.09149426422989       -3.14368412297243        0.83309814142505
H           -1.06445553055470       -3.12320154365557       -0.95385140005568
H           -2.50320226812725       -2.54290057715365       -0.07532714939866
H            1.29933460156764       -2.91863957438558       -0.01034888425586
25
 energy: 17.982966485263 xtb: 6.6.1 (8d0f1dd)
C            3.22816934524113        1.23915714778878        0.08764751130050
N            2.39869635932917        0.05772346100719        0.02908772713903
C            2.66934253221767       -1.38175469106231        0.03334221896100
N            1.39868808658633       -1.92633841664646        0.00379259110720
C            0.42454146508982       -1.00947452991755       -0.00721239829695
C            0.98414878552239        0.25547490896473        0.01238520773904
C            0.13695629036693        1.41202698258843       -0.00487301343180
O            0.45653126689698        2.60518773785969       -0.00431100966800
N           -1.26777179707393        1.07384538990021       -0.02996608570506
C           -2.25913637552081        2.14770510651262       -0.04876898582987
C           -1.81009069343224       -0.17141018572814       -0.04673592500302
O           -3.00802297497926       -0.37906479142052       -0.07061630407390
N           -0.91630131518442       -1.24737210870152       -0.03565427613587
C           -1.40965325286221       -2.59926573169285       -0.05920704231281
H            3.68556782939607        1.37973749520515        1.07311719632914
H            4.01253558886571        1.22164501498106       -0.67048244926893
H            2.59487351433436        2.11951466517086       -0.09524982617474
H            3.47413229328139       -2.32469877869497        0.02738879206350
H           -1.74345436500590        3.10390164666867       -0.02181029875128
H           -2.87217046502333        2.07629196075467       -0.95007297734559
H           -2.92706981198226        2.05464238234081        0.81042372899488
H           -1.08255971316740       -3.13739531565956        0.83365653143533
H           -1.05490056397960       -3.11672514384052       -0.95393826467930
H           -2.49645035390959       -2.54366547130755       -0.07563525441892
H            1.29561299292925       -2.92066013289891       -0.00927349782629
25
 energy: 17.747571342145 xtb: 6.6.1 (8d0f1dd)
C            3.22564113711200        1.23896800283065        0.08729052905905
N            2.39962859649839        0.05381998584181        0.02772339143441
C            2.66940712396448       -1.38382824325865        0.03465458431242
N            1.40034891881805       -1.92587139781476        0.00452866688201
C            0.42401351665701       -1.00936559298345       -0.00707328396756
C            0.98732964003015        0.25384678059673        0.01202643281962
C            0.13931823607568        1.41451829500417       -0.00524515212022
O            0.45615255269249        2.60488192347838       -0.00457452931258
N           -1.26419167488167        1.07525546053400       -0.02984087695306
C           -2.25731060094142        2.14792604380941       -0.04849311013678
C           -1.80965904098853       -0.17124848150334       -0.04659569472650
O           -3.00628955470494       -0.37755362257375       -0.07050949380904
N           -0.91474373510620       -1.24621279134283       -0.03538198722786
C           -1.40793347987093       -2.59899556069036       -0.05922958242134
H            3.67960586854398        1.38093164336207        1.07309754669822
H            4.01013694876168        1.22559639000881       -0.66884037795951
H            2.58997129141260        2.11568617253941       -0.09688054885575
H            3.46493941679025       -2.32697954174744        0.02557779932536
H           -1.74507257024036        3.10552927858875       -0.02118094550698
H           -2.87012260196956        2.07543475537655       -0.94987828453768
H           -2.92521306285233        2.05311453535185        0.81053109825510
H           -1.08047341877695       -3.13597572870648        0.83375554818680
H           -1.05243812806168       -3.11505615758924       -0.95403229611114
H           -2.49469363757174       -2.54507813375135       -0.07588748848130
H            1.29386292654577       -2.92031541318893       -0.00850804869836
25
 energy: 17.088277361905 xtb: 6.6.1 (8d0f1dd)
C            3.22573374790374        1.23853753721121        0.08715272721434
N            2.40030843779681        0.05259697028841        0.02637191931578
C            2.66968549166749       -1.38295193744674        0.03606731543560
N            1.40083534839995       -1.92469352248241        0.00515092648195
C            0.42334202337389       -1.00898371862351       -0.00705200843741
C            0.98899820799785        0.25318572001221        0.01158949798174
C            0.14019782312783        1.41505766892382       -0.00561110603203
O            0.45531295745447        2.60514104348617       -0.00482080707845
N           -1.26232108351870        1.07452520233825       -0.02974421929250
C           -2.25589790937145        2.14720557276469       -0.04830272770357
C           -1.80995486297890       -0.17192292691035       -0.04652539661070
O           -3.00619195258180       -0.37707552894846       -0.07042910761857
N           -0.91461289766668       -1.24621515567802       -0.03521845096528
C           -1.40798831481439       -2.59949620840817       -0.05928599092615
H            3.67787894586482        1.38013695061794        1.07353769846674
H            4.01057792618978        1.22574757145921       -0.66797056776047
H            2.58956510655560        2.11406110645072       -0.09764748923394
H            3.45967251173116       -2.32159203192790        0.02407433697987
H           -1.74456740114151        3.10516574080824       -0.02079760752591
H           -2.86861250381758        2.07482603009929       -0.94977283978776
H           -2.92381892765651        2.05215150231413        0.81066613187507
H           -1.08064966861888       -3.13636393826745        0.83369187865930
H           -1.05244184839698       -3.11522426555302       -0.95413544347533
H           -2.49467670603952       -2.54577663252867       -0.07603662762272
H            1.29184021647568       -2.91901414782756       -0.00791814619229
25
 energy: 16.648839151767 xtb: 6.6.1 (8d0f1dd)
C            3.22638739442260        1.23835231978673        0.08715397585321
N            2.40089259032532        0.05244802936809        0.02507649403090
C            2.67024433795480       -1.38204937104208        0.03752445245533
N            1.40065935742319       -1.92387896150046        0.00573560729856
C            0.42307766770497       -1.00850630471467       -0.00709126825457
C            0.98963368848038        0.25327766342972        0.01113560713189
C            0.14049094750535        1.41475202095212       -0.00591073867876
O            0.45484101037418        2.60541660132659       -0.00500710701063
N           -1.26179834688625        1.07360280269411       -0.02968308024362
C           -2.25534282661722        2.14660367418936       -0.04818035211355
C           -1.81016717430220       -0.17242250718521       -0.04651039411296
O           -3.00649617828529       -0.37710144223835       -0.07040958276205
N           -0.91481131157173       -1.24647484693071       -0.03513302800125
C           -1.40816611639424       -2.59991144114805       -0.05934694471559
H            3.67794555598640        1.37939514857856        1.07395928115588
H            4.01173498524277        1.22530031770915       -0.66755473227709
H            2.59031746963366        2.11390680809519       -0.09778136054246
H            3.45635536713816       -2.31770907532862        0.02274500135661
H           -1.74388330538502        3.10452245009581       -0.02058301320300
H           -2.86804051740893        2.07445843155250       -0.94969335376483
H           -2.92330415618231        2.05161949190334        0.81076520122291
H           -1.08101224393633       -3.13701068828324        0.83359094285746
H           -1.05274255774134       -3.11570605524645       -0.95423980259824
H           -2.49482334328491       -2.54584264419441       -0.07612322397269
H            1.29022237374017       -2.91801381969697       -0.00740468496415
25
 energy: 16.496886598820 xtb: 6.6.1 (8d0f1dd)
C            3.22676846783333        1.23829977843643        0.08720161348723
N            2.40111411431711        0.05265361186342        0.02405503017583
C            2.67069805514598       -1.38170342203386        0.03883129934458
N            1.40043154419272       -1.92369217275412        0.00625224025313
C            0.42318516695463       -1.00825386375084       -0.00714502975440
C            0.98955399068932        0.25361556717662        0.01075421742727
C            0.14047274548842        1.41438110668762       -0.00612840214215
O            0.45486685671280        2.60546106229439       -0.00511809894002
N           -1.26203632588776        1.07324202620394       -0.02966696699773
C           -2.25543135554723        2.14644937953807       -0.04811435531208
C           -1.81010854940077       -0.17253241118794       -0.04653022279083
O           -3.00661936396307       -0.37731792014905       -0.07043723083643
N           -0.91487106107252       -1.24669817572554       -0.03510381778475
C           -1.40815209073485       -2.60004457693091       -0.05939830806111
H            3.67838752790823        1.37890130850883        1.07417433561048
H            4.01246075641062        1.22503637435738       -0.66742604790355
H            2.59100187501133        2.11430313400488       -0.09757146064383
H            3.45474143436738       -2.31646627731093        0.02168496783046
H           -1.74357674997767        3.10420523810306       -0.02049141586409
H           -2.86813392491266        2.07439989872706       -0.94963096676682
H           -2.92339279132410        2.05151034567479        0.81083342695728
H           -1.08112377109573       -3.13737199078673        0.83350150244748
H           -1.05284515926560       -3.11596903980791       -0.95432212300105
H           -2.49482638896647       -2.54566181714128       -0.07617621640939
H            1.28964966505278       -2.91771856182535       -0.00699407417821
