  25
        -42.12805858
 C          3.0312521344        1.0884224541        0.3828672805
 N          2.2973430566        1.9984957835       -0.4724360678
 C          2.3645256619       -0.2442996804        0.3241236136
 N          0.7485070162       -2.7347730229       -0.2280627169
 C          0.2672293373       -1.5731206859       -0.0606928625
 C          1.0304419170       -0.3136690481        0.0514267070
 C          0.2940946850        0.9087769840       -0.0599089698
 O          0.9151431031        2.0767681512       -0.1424954386
 N         -1.0329134291        0.9144691878       -0.0029322992
 C         -1.8067323684        2.1416362638       -0.0278272955
 C         -1.8025344251       -0.2849585674        0.0846384591
 O         -2.9932991431       -0.2082916037        0.1873202198
 N         -1.1036841473       -1.4587845232        0.0149253109
 C         -1.8635879240       -2.6965694786       -0.0317597633
 H          3.1055359080        1.4259149669        1.4333197477
 H          4.0455158323        1.0310515065       -0.0197487298
 H          2.6349662598        2.9585910546       -0.4693746938
 H          2.9421520873       -1.1240324166        0.5527692294
 H         -1.1407239528        2.9972185779       -0.0695911837
 H         -2.4675088361        2.1337972330       -0.8953378271
 H         -2.4317525446        2.1895060152        0.8645876741
 H         -1.6078174092       -3.3160927637        0.8270171604
 H         -1.6004613101       -3.2434875840       -0.9368701703
 H         -2.9243714992       -2.4594477365       -0.0224860004
 H          1.7472797378       -2.8527535793       -0.3068840000
