25
 energy: 46.531291143207 xtb: 6.6.1 (8d0f1dd)
C            3.32939176549119        1.42537833055567        0.09000140511548
N            2.48845098966267        0.25429574090313        0.07738431078239
C            2.86604876628216       -1.03322236187311        0.06446873022790
N            1.77487082466917       -1.85251843482857        0.01945539012346
C            0.63953088812112       -1.06994288337856       -0.00009430037184
C            1.12011445571836        0.25572720712555        0.03820682755550
C            0.22739510300512        1.37572854883817        0.01488555306205
O            0.57975770977500        2.55179843883914        0.02708400802315
N           -1.07816537742489        0.95339276681881       -0.03169103479734
C           -2.09597278686693        1.99794519292678       -0.05194921810496
C           -1.54152337571858       -0.38288541251734       -0.04461413804913
O           -2.75195253710891       -0.46035420461875       -0.06376667135685
N           -0.64221066680308       -1.41364276933967       -0.03769550780156
C           -2.55739026735090       -3.06299785751524       -0.09164222443323
H            3.86880142630831        1.48832219487126        1.03466852176963
H            4.04359866935135        1.39852156350639       -0.72871089243875
H            2.72522431241908        2.32736237946112       -0.03153910377075
H            3.87363558613955       -1.38737425344719        0.06482996475747
H           -1.53611570686940        2.92906133604110       -0.03520618287379
H           -2.70824567384259        1.92144268047985       -0.95106334841571
H           -2.74721887224291        1.90665439136416        0.81766063749258
H           -2.27467436207172       -3.50269468189629        0.82041152911187
H           -2.24868330450966       -3.47022826611557       -1.01037771017974
H           -3.22803602313382       -2.24771393818393       -0.08552448331307
H            1.83928112085707       -2.86597427315318        0.02114290417384
