25
 energy: 0.560053035358 xtb: 6.6.1 (8d0f1dd)
C            3.25998273609470        1.25268549262491        0.09277212329407
N            2.35803521536191        0.13643974099001        0.02594377345062
C            2.69390803565293       -1.20849640593508        0.03612967820429
N            1.53094163548896       -1.93756897360812        0.00997550739454
C            0.45508952299428       -1.12609027125024       -0.00952676582688
C            0.95912475737521        0.18932397350758        0.00363964246919
C            0.14825114101012        1.34083432896879       -0.01148022867028
O            0.48728248558784        2.52848858212455       -0.01491489070852
N           -1.23392429190115        0.98493282382281       -0.03293027887144
C           -2.19290698324902        2.08595766933333       -0.05037404465910
C           -1.75550306428374       -0.26695698024406       -0.04838037274257
O           -2.96192640200653       -0.42724804150992       -0.07142850447126
N           -0.90939787685788       -1.41330598478920       -0.03809886363288
C           -1.70416722273138       -2.67091573458555       -0.06548798289586
H            3.76514297459086        1.29532363079070        1.06462005808059
H            4.02773287088544        1.17441474492001       -0.68454116446028
H            2.68955075968026        2.17911464132736       -0.04045509998723
H            3.68207319200221       -1.60849278179880        0.04856228992583
H           -1.62737903771696        3.01845519313028       -0.02639381413001
H           -2.79787441188367        2.03272721169385       -0.95479581889883
H           -2.84653609836317        2.01524154721940        0.81759657514171
H           -1.52245703151684       -3.28075322109891        0.82145287553282
H           -1.49509297014373       -3.25876892891574       -0.96106535580220
H           -2.73887220227039       -2.35342870220085       -0.07798274717786
H            1.51791025467025       -2.94074818589688        0.00198740421098
