25
 energy: 39.097741564821 xtb: 6.6.1 (8d0f1dd)
C            3.45862608285687        1.56386841995682        0.08973592268425
N            2.62838969238067        0.39042684680080        0.06020032290885
C            3.03662831907404       -0.87397074120726        0.04941157959966
N            1.96767932431902       -1.70167337231119        0.01638251863001
C            0.81859605998944       -0.93410310909025        0.00447794202725
C            1.25833956114042        0.39875832056706        0.03499736555479
C            0.30718059852053        1.49389978592168        0.00663749809908
O            0.61161010845920        2.68204263488714        0.00702689450818
N           -0.97232205135464        1.00254949608294       -0.02800532249442
C           -2.07397213969709        1.95072219998304       -0.05236939289965
C           -1.36681028947956       -0.40093931905650       -0.04119069112703
O           -2.55807900199789       -0.60056113654184       -0.06371164247554
N           -0.41663630845693       -1.36323554941863       -0.03081099736680
C           -3.23570606877345       -3.47662785664942       -0.10793412826595
H            3.95589095133460        1.64464561885274        1.05545192416910
H            4.20757065604552        1.51033508429891       -0.69877785752911
H            2.81583370423293        2.43148941139404       -0.05954764914594
H            4.05763560599129       -1.19733424087956        0.06706305079850
H           -1.65505519573425        2.95416261799907       -0.02899589250818
H           -2.67054019586968        1.80824672851763       -0.95427096950318
H           -2.72220143676196        1.78622037939694        0.80886143157142
H           -2.97959223327175       -3.95214562230756        0.81357755528652
H           -2.94849292200120       -3.91724873883255       -1.03744915606495
H           -3.72861125881167       -2.53198798938084       -0.09879351280778
H            2.00053895197817       -2.70994357999473        0.00676452204857
