25
 energy: 47.301392832587 xtb: 6.6.1 (8d0f1dd)
C            3.31029999746279        1.41197098820968        0.09057469491001
N            2.47253271817346        0.23892395904284        0.06684446682833
C            2.84715439679584       -1.05223472431035        0.06170466797374
N            1.74953859487062       -1.86726340758519        0.02099773824242
C            0.61604677011807       -1.08478094610963       -0.00071916837369
C            1.10186799021815        0.23983705596873        0.03345949112722
C            0.21998085332510        1.36296469219701        0.01057826220489
O            0.57303076863381        2.53903474186641        0.02287373743781
N           -1.09298837083528        0.95460993592258       -0.03365348695820
C           -2.09931694612178        2.01099280445564       -0.05194163952555
C           -1.56444620277587       -0.37360728293859       -0.04478994786335
O           -2.77656358374766       -0.44421825365181       -0.06365032155761
N           -0.67414418475119       -1.42026705301412       -0.03737749281866
C           -2.47012890437163       -3.01864565665137       -0.08986384266989
H            3.85661674885888        1.46508377727177        1.03216300026940
H            4.01659484429010        1.41465213789977       -0.73475435863080
H            2.70209110450815        2.31265767767712       -0.01606174355643
H            3.85770551791933       -1.39740262524206        0.06311157491662
H           -1.52768190793537        2.93746423928625       -0.03424497067745
H           -2.71077269591750        1.93852828509405       -0.95134782887634
H           -2.74921480153343        1.92514486477090        0.81856600654441
H           -2.19253878619362       -3.46164677938619        0.82285041293617
H           -2.16504571395147       -3.43155416968024       -1.00789572052525
H           -3.16808154337038       -2.22643240906483       -0.08593611420128
H            1.80597146424745       -2.87874424551269        0.02078170060033
