72
 energy: 78.263733369604 xtb: 6.6.1 (8d0f1dd)
N           -1.12444175850413        1.68031677711552        2.81505044864374
C           -1.36028084688303        1.19606502488082        1.70507918396803
C           -2.63759485081922        1.83663746747437        0.24219559494731
C           -3.48082610827786        0.62461615462749        0.43094566168183
C           -4.07886843395904       -0.03345115567505       -0.62937354010947
C           -4.65352430148026       -1.27855417699630       -0.47166336270041
O           -5.31302532183180       -1.91328809987764       -1.47924709946295
C           -5.51458116502681       -1.21199832404541       -2.68083982937155
C           -4.58849517742761       -1.95732587673445        0.76127013393370
O           -5.01769738283055       -3.25090564732145        0.79452107063535
C           -4.74696373964209       -3.95750087454718        1.97131058058823
C           -4.10101484970384       -1.28397384360981        1.85836256983402
C           -3.61938074966986        0.00750675148443        1.71121537823653
C           -2.32841619604483        2.20892125644279       -1.23525462920543
C           -1.53666895245203        1.25060811591872       -2.12053711123320
C           -0.05754699071705        1.13720858643758       -1.93455330930888
N            0.54947322553534        0.00114359516745       -1.45666511515347
C            1.88120900176254        0.14974319415990       -0.95856299497777
C            2.95513015120792       -0.32632090699654       -1.93794224358040
C            4.27156850093911       -0.21688174216805       -1.23323810550628
C            4.99851569567699        0.95834720638138       -1.25129353142117
C            6.21409081185347        1.04008191698802       -0.57563436251121
C            6.73574342319960       -0.03378781635874        0.14249413066304
O            7.97051610691581       -0.05913737746792        0.79566754720189
C            8.82359422416261        1.06463860916217        0.69850027141837
C            5.96004235040018       -1.22480667988725        0.20730590776421
O            6.53727326961305       -2.24084986957670        0.93644143445454
C            5.83758292078691       -3.43942846819547        1.15155349451611
C            4.75097447115290       -1.28938998063899       -0.47755584599790
C           -0.23129719693151       -1.12819884554844       -1.04156300641576
C           -3.21012633693713        3.17693441508341        0.79142000801751
C           -4.26680562341724        3.19436867977085        1.88925107255286
C           -1.99773986226518        4.04160340415716        1.14233501351845
H           -4.12834863722397        0.48791935712764       -1.55809179237239
H           -6.07376602099382       -0.28471246112967       -2.55705089992797
H           -6.09056344740766       -1.88889322497980       -3.30750539458762
H           -4.57649891168722       -0.95115984121203       -3.17640120959991
H           -5.28230051185093       -3.52448359463104        2.83780555089166
H           -5.09742322529238       -4.96955192856427        1.80887656543378
H           -3.66072288350904       -3.99966039263317        2.12266285886051
H           -4.05885336843167       -1.78705764541457        2.81685744654601
H           -3.28643255401314        0.46995938164805        2.62145084686649
H           -3.28603105591746        2.43609957966654       -1.72892338492211
H           -1.73965815791652        3.13126488377145       -1.25336572574100
H           -2.04466096434131        0.29322704189648       -2.09359389034224
H           -1.70804074080480        1.76154397169162       -3.05448583440101
H           -1.01395072004768        0.28279923450560        1.46576941572284
H            0.60607134074946        1.80001067464600       -2.47498156349722
H            1.97263249897673       -0.40736169044672       -0.02204092829258
H            2.10224908757761        1.18868252569224       -0.74074043737188
H            2.94453738738005        0.28733661504848       -2.84296679256450
H            2.71984530387425       -1.35121256095903       -2.20863662345798
H            4.63727700263938        1.81107367087243       -1.81343535082786
H            6.78088558102001        1.95697253690474       -0.63973996970450
H            8.37838434894766        1.94963424842397        1.15460759667247
H            9.04819852216492        1.30118728421929       -0.34151962896794
H            9.76635161074597        0.82706800184777        1.21068419368010
H            6.46393380605148       -4.09543954750471        1.78362938978038
H            4.90572835170373       -3.20038701799060        1.65539340233312
H            5.58703141533482       -3.95177589694044        0.21480077022855
H            4.15772326624964       -2.19363413772815       -0.46061829018217
H           -0.46856653416508       -1.74077919863113       -1.91011830259105
H           -1.16939230719106       -0.82885925966634       -0.58834005165676
H            0.30979969072019       -1.72595151065213       -0.29928090933711
H           -3.66961320588287        3.63393321030152       -0.08639123856174
H           -3.81488541724357        2.86381402556157        2.82389751102962
H           -5.14339505817649        2.54102279281935        1.64754100084026
H           -4.65395548530979        4.22121354795546        1.98739090659724
H           -1.34700019910764        3.46571790638658        1.79204159768011
H           -1.45636902786553        4.29522040935938        0.23450608745039
H           -2.29511205674968        4.95067314536774        1.64291859162041
H           -0.64822675691515        1.39587217512317        3.62829055800398
