72
 energy: 23.538635755795 xtb: 6.6.1 (8d0f1dd)
N           -1.73288979081584        2.26740452909728        2.78988942440670
C           -1.66169458614069        1.70518864343789        1.66281473220673
C           -2.63793822039710        1.87674036482878        0.46998074832826
C           -3.46401507089246        0.61725405649628        0.49725017843168
C           -4.17762869604460        0.08561604274135       -0.56812796135123
C           -4.76425154650557       -1.16428485719900       -0.48619591478319
O           -5.54813801153484       -1.72434043486535       -1.44768478517460
C           -5.90737515230548       -0.92490977271061       -2.54625890181265
C           -4.53288654892174       -1.96454846767297        0.63951152200631
O           -5.03378466228701       -3.22863974383556        0.63153697007090
C           -4.68055445413483       -4.02308524677685        1.73005049068305
C           -3.80562656962360       -1.44668688576569        1.68112979739189
C           -3.31324901399859       -0.16852642605003        1.61178790495339
C           -2.10618446334361        2.21061655900573       -0.98818879031655
C           -1.34116249770548        1.23691602808806       -1.89243398527620
C            0.09017793910884        1.13841851692960       -1.44357382826920
N            0.66412097625133       -0.09313968619234       -1.13541678349708
C            2.02995263868859       -0.07134398710321       -0.70513759056675
C            3.05443720499851       -0.51884559340700       -1.76894596014994
C            4.43049844990945       -0.38198493686803       -1.18274861327820
C            5.14157167811721        0.80658947082626       -1.24728956673378
C            6.36865742785628        0.92825013903513       -0.59944997330035
C            6.93020936715485       -0.12827185972952        0.11345244464066
O            8.18963021594878       -0.12149985788253        0.70305885357180
C            8.98158602911167        1.03045251692340        0.53760942624293
C            6.17859722549354       -1.32848290031468        0.21208275933168
O            6.74911493573842       -2.32977385744454        0.95888273924258
C            6.05025700262804       -3.52945766125893        1.15986810945225
C            4.96298303165955       -1.43392664516031       -0.44280383421251
C           -0.13462829893534       -1.26031939009416       -0.88000708832231
C           -3.53731835396967        3.16028390266832        0.75432263824815
C           -4.50355385389806        3.06243562161767        1.92606687347306
C           -2.58337191780518        4.33610914435151        0.92904187405717
H           -4.31132679494789        0.68704505408373       -1.44693350187395
H           -6.42448184247927       -0.00634111398332       -2.25797603420408
H           -6.57652609399863       -1.53614631536480       -3.14608003012047
H           -5.04167700503932       -0.63624878970192       -3.14061583716814
H           -5.05526514274498       -3.59362542821243        2.67563081543193
H           -5.14914239498627       -4.98692520923435        1.54876955985059
H           -3.59105188316824       -4.15104527479171        1.77188747687961
H           -3.60920560243891       -2.02518085986707        2.56105272129355
H           -2.77784648156890        0.21568678365779        2.44721553067411
H           -2.96104646781841        2.63842066272680       -1.50214608932922
H           -1.36693857620754        3.00091189208914       -0.87237850692555
H           -1.83800771834530        0.27556936027905       -1.90097651899021
H           -1.37208794049132        1.60913162186661       -2.92116232279587
H           -0.81169848279390        1.16655666334754        1.39951281484831
H            0.85065001621185        1.83966256842697       -1.77150065045489
H            2.16271475071346       -0.70629863441079        0.17442181276612
H            2.28196452427444        0.95203520470247       -0.42462334469983
H            2.94367083319403        0.11793904218028       -2.64461765586993
H            2.83401624025724       -1.54520604014205       -2.06463343453527
H            4.74249503267326        1.64916724616090       -1.80042150686827
H            6.92147653684105        1.85138752310442       -0.66824068606824
H            8.51926544782875        1.90489420856060        1.00621821644220
H            9.13685515957992        1.25070409543271       -0.52082803813304
H            9.95622113327913        0.82764433491118        0.99273970770898
H            6.70970766341370       -4.20731932120440        1.72884174675160
H            5.13977982875813       -3.33214261186544        1.72355135411158
H            5.77775364290811       -4.00299975925492        0.21082471410800
H            4.38752391570670       -2.34519104854458       -0.39193466117917
H           -0.34590554609778       -1.80394607808963       -1.80044741110745
H           -1.08416584242355       -1.01159757894606       -0.39679217533521
H            0.38759264771830       -1.92837692602452       -0.18509143305712
H           -4.13227562495500        3.35079383580943       -0.14484693735720
H           -3.95276893241472        2.92209722817917        2.84918470078420
H           -5.14797375346371        2.17093231910852        1.82390510515364
H           -5.10704837996459        3.97597813931715        2.01024107542938
H           -1.82612719839886        4.05219597255815        1.64419754191774
H           -2.11485737688248        4.58556830011539       -0.01701240335665
H           -3.11090407596019        5.20100021595754        1.30121459985638
H           -0.98836452718345        2.18807808010187        3.46487629501856
