72
 energy: -6.419023986721 xtb: 6.6.1 (8d0f1dd)
N           -1.56031618782759        2.84547193719645        2.27444903512955
C           -1.58756069538494        2.14300959265287        1.22819470858442
C           -2.76036472509100        2.05767332478258        0.28560741684080
C           -3.34232632609879        0.65695067770567        0.34587230861857
C           -4.31626997952367        0.24202344067843       -0.56438197643162
C           -4.85550427977246       -1.03060194532716       -0.51911052872916
O           -5.79952834912466       -1.51944446916560       -1.37708957614422
C           -6.34169778135299       -0.64534931646739       -2.33217207732603
C           -4.41687592893105       -1.93878287711447        0.46537526430670
O           -4.99937913307296       -3.17298710246506        0.43111403981410
C           -4.65663845114561       -4.08485768251752        1.44214932381350
C           -3.46145724855250       -1.52433019359411        1.37367227663454
C           -2.93303466509597       -0.24144199597888        1.31143474988368
C           -2.19387517826168        2.30218024551062       -1.14218313896286
C           -1.26248653745388        1.19217821812374       -1.68202836937927
C            0.02221941844259        1.13191937975522       -0.92871431972424
N            0.64454416465048       -0.06503566005935       -0.58517791640795
C            2.02043019520044       -0.06937157335698       -0.19987949863931
C            2.96451699230743       -0.55587910645299       -1.32542994926212
C            4.38726711471279       -0.44264320142991       -0.87558808260919
C            5.10552828231625        0.72368610030690       -1.06232130142383
C            6.40812480474747        0.84050212055405       -0.59508537526305
C            7.01935426254362       -0.20890085025174        0.07023402117643
O            8.29534921278294       -0.20596653504387        0.54976853485295
C            9.06991142608165        0.94699362206180        0.34220839966353
C            6.29304291837851       -1.40212380478894        0.27403080919413
O            6.95334691568613       -2.38574259810335        0.95293299958967
C            6.28958996985909       -3.60553499147963        1.15649090221077
C            4.99484111388147       -1.49778543489706       -0.19588558955397
C           -0.05489769776216       -1.31865735663901       -0.63529003450680
C           -3.87846974692458        3.09468114535202        0.58955442557768
C           -4.52560834431593        2.80537183925554        1.94041145470170
C           -3.31424508098162        4.50895506804694        0.57669761957885
H           -4.63063231804037        0.92051564173932       -1.33951211343207
H           -6.79967515875536        0.23027194979959       -1.86127704085295
H           -7.10696760739515       -1.21581810655790       -2.85657267117981
H           -5.58830522852542       -0.30823166969934       -3.05081956070668
H           -4.88528142368065       -3.68557406078469        2.43742095557671
H           -5.26413474800271       -4.97008939729102        1.25107271871862
H           -3.59569336541744       -4.35656809773352        1.39606056577326
H           -3.12042042965123       -2.18616240402041        2.15416263750632
H           -2.20799544526051        0.06341319922502        2.04861594051923
H           -3.04031891097749        2.42312068745159       -1.82729496980060
H           -1.63308485711920        3.23776233892954       -1.12655887036858
H           -1.78523272817176        0.23940145701053       -1.64613044815470
H           -1.04361039744224        1.39666314001958       -2.74202428679558
H           -0.71633473728859        1.61742357462085        0.75824887858316
H            0.67777952815363        1.98374957464432       -1.03035393644087
H            2.16853393516917       -0.69799607971624        0.69050779939405
H            2.29932228271138        0.94945718693774        0.06717316768065
H            2.78979271274737        0.05959433965894       -2.21394951292638
H            2.71637401235759       -1.59009622348039       -1.57146833166834
H            4.65582508790880        1.55619881143158       -1.58230680245056
H            6.93385893574239        1.76558572141833       -0.76577191949963
H            8.63368376632234        1.82335578154129        0.83463157872471
H            9.18923062934723        1.15873006200590       -0.72579259518653
H           10.04509823552398        0.72936385864754        0.77453599812550
H            7.01077104953802       -4.24748537292366        1.66298683890381
H            5.40327281957779       -3.48459300568666        1.78742327301549
H            5.99769165611609       -4.06995786434688        0.20808478337241
H            4.42559587164011       -2.40131718622876       -0.04937207036447
H           -0.22205939948282       -1.65932797068902       -1.66162556550597
H           -1.02760290535715       -1.23043817915962       -0.14326889409749
H            0.53604375823659       -2.07176262313250       -0.11212398609127
H           -4.63687443841609        3.02151405058902       -0.20364026176162
H           -3.75542020395534        2.89693614522009        2.70251480393204
H           -4.93403841936181        1.79654268321346        1.97284485976096
H           -5.32072678024385        3.52223021171814        2.14548877099172
H           -2.52427838113142        4.57864575616146        1.30385197632427
H           -2.93159245282830        4.76957392272732       -0.40544341155527
H           -4.08674929838635        5.22503642638981        0.84946402493439
H           -0.70421434805872        2.78202375192281        2.81874150593609
