72
 energy: 69.668329575373 xtb: 6.6.1 (8d0f1dd)
N           -0.25466383386597        0.51815077160584        3.56818357464798
C           -0.43904764239508        0.58025317759446        2.34304703854117
C           -3.07530389967036        2.03222275614188       -0.33194393519536
C           -3.53435596053075        0.75863669780180        0.04789388378379
C           -4.07672008140220       -0.12539400105567       -0.92684105205778
C           -4.50529967975028       -1.39129726513924       -0.61619174996100
O           -5.07047001968766       -2.25758219828294       -1.51329856910106
C           -5.31966755757814       -1.79190181422209       -2.81073422797336
C           -4.38972415115843       -1.87992793543816        0.70419217248722
O           -4.80022827876223       -3.17411535165624        0.90043174269703
C           -4.74187658349442       -3.70198355147352        2.19657683090259
C           -3.90183518947628       -1.02959456481446        1.68413913212948
C           -3.49219773070538        0.25248542347759        1.37314412097691
C           -2.75377187754387        2.33168557397425       -1.73053197580185
C           -1.67762932316228        1.36414776612897       -2.44317573380460
C           -0.34122745305836        1.39656013576839       -1.88899349472219
N            0.18467639154183        0.43166140961351       -1.11090109606519
C            1.53052023126396        0.55150389645188       -0.62119043828419
C            2.56367465222184       -0.07970453870318       -1.57803936174809
C            3.93334435390440       -0.03022769899996       -0.96653399625860
C            4.71578024605609        1.10407411867140       -1.06581199977277
C            5.97494688494015        1.15097117011077       -0.48148161265456
C            6.47211626949748        0.06239096360658        0.21400578622519
O            7.69530050628457       -0.00586589971417        0.81510291614180
C            8.56234831624126        1.09706146041049        0.71714538706143
C            5.67515250040956       -1.10170364316119        0.32718876855979
O            6.24531256581859       -2.12742903824943        1.01878976504262
C            5.53972194996195       -3.33551746298458        1.14549145445699
C            4.42170824359726       -1.12742935645266       -0.25796720057023
C           -0.45463893258462       -0.85214096077721       -0.98346303313214
C           -2.81405853320796        3.17356649414615        0.62470217563825
C           -3.82328331550650        3.28932474797236        1.77859047799076
C           -1.36915678494726        3.24237995542892        1.12986406071631
H           -4.22637740781881        0.25285702358409       -1.92168363114604
H           -5.97641010022269       -0.91429057032099       -2.81919677454627
H           -5.81998778508680       -2.61540490329826       -3.31637191699758
H           -4.39099197041312       -1.54926275904351       -3.34243427243200
H           -5.37522531022784       -3.14443756406824        2.89645264616026
H           -5.11108956229724       -4.72359628431256        2.11655045949882
H           -3.71285453626021       -3.72748434707105        2.57001439256070
H           -3.83406937296613       -1.37202568550385        2.70945556244525
H           -3.11428131272925        0.85283213890109        2.18212837350294
H           -3.64083055600831        2.26722088506285       -2.36119802467511
H           -2.33897503976551        3.33822337749185       -1.81613377584609
H           -2.09202312701584        0.35970785201040       -2.45294328760119
H           -1.64911390395089        1.75754641821778       -3.45665460914300
H           -0.89895105993476       -0.28570771599772        1.87411231744810
H            0.23417031606389        2.30531386092459       -1.96702290466956
H            1.59277999644907        0.06383704133913        0.35487741886337
H            1.77466722498378        1.60536752519140       -0.48783664989169
H            2.55207881073777        0.46779316703635       -2.52325935490624
H            2.28025657526427       -1.11405358916199       -1.77708141396613
H            4.35603117348639        1.96321847738362       -1.61281006772354
H            6.56537908097867        2.04771896946704       -0.58447284402908
H            8.14273200148402        1.98777829433966        1.19558227452195
H            8.80528489352784        1.32747203815137       -0.32568685795938
H            9.47249521282020        0.80788230348015        1.24376461263984
H            6.18207503260460       -3.99644618106687        1.73080568428494
H            4.59607616064140       -3.18753959494714        1.67808643453993
H            5.32986888027079       -3.78702237004813        0.16918513060462
H            3.80678429216581       -2.01162362267724       -0.18467948558662
H           -0.49920162114847       -1.37999599325905       -1.94131980904553
H           -1.47021018525513       -0.73042496095470       -0.60882542872375
H            0.10458423866151       -1.46097249304551       -0.27769692557907
H           -2.96775036194461        4.06641223461462        0.00418201440007
H           -3.48238342522467        2.77704876883370        2.67348628197869
H           -4.79347728814257        2.87984986600321        1.49457576575864
H           -3.96466812623940        4.33887802932910        2.03457984571163
H           -1.09420329984454        2.29517510291672        1.61237367695838
H           -0.69271278248645        3.40557760702460        0.29295771406329
H           -1.24477148056666        4.05749642605049        1.83957049104040
H            0.21635602374910        1.27663120407550        4.07053807243106
