72
 energy: 92.953373801212 xtb: 6.6.1 (8d0f1dd)
N           -0.49936673235646        0.80069534992681        3.23922251543078
C           -0.80612001493322        0.81777841876739        2.05757470038744
C           -2.90418314913191        1.92818340548514       -0.12644666419541
C           -3.49818984328034        0.69937117798125        0.22650356060359
C           -4.06063875121080       -0.09832961769836       -0.79135572255898
C           -4.56228890696504       -1.34849308724415       -0.54322094951017
O           -5.16913488196513       -2.09642344775872       -1.50775421262865
C           -5.32622384896653       -1.49586292611145       -2.76573802626315
C           -4.48707147777171       -1.92571192278829        0.74247433465705
O           -4.90899126290650       -3.22791744460247        0.85822817096617
C           -4.76090743130300       -3.84010552686367        2.10984765854433
C           -4.04800900006637       -1.14230845948775        1.79696658896240
C           -3.58448252964352        0.14300269573736        1.55571251630858
C           -2.57558724599645        2.27131149656373       -1.52666787659679
C           -1.63250861941364        1.29453503639738       -2.31282292681490
C           -0.20345518588609        1.23077081817321       -1.98233206831378
N            0.35396249402033        0.24857163951028       -1.24900011344155
C            1.69408958802172        0.37527418310059       -0.76840638175254
C            2.73951204679605       -0.18818966468988       -1.74089070530609
C            4.08559561388748       -0.11216646943000       -1.08829796993925
C            4.84319321547562        1.04137787288760       -1.14992076656941
C            6.08352330470599        1.10453226490129       -0.52282118315942
C            6.59264204757179        0.02333335446953        0.18387141634308
O            7.81517756534050       -0.02270419015830        0.82245867619962
C            8.68537655799038        1.08768213796640        0.74037010164051
C            5.80483017976247       -1.15460461199021        0.27089418526114
O            6.37932075948012       -2.17678887657479        0.97418559949865
C            5.66761065029090       -3.37424591790875        1.15003400972517
C            4.56950884297081       -1.19868950728739       -0.35897951516519
C           -0.35171724482643       -0.98013849477441       -1.00833152820076
C           -2.97109276738121        3.17487459121439        0.72526483620489
C           -4.01625853236677        3.24337289505809        1.84248246345314
C           -1.58395345986904        3.63535655246846        1.17003418577430
H           -4.16490435847045        0.35218102448774       -1.75563442951643
H           -5.93718227598432       -0.58793209126308       -2.74036933924542
H           -5.83982989625212       -2.24101115347604       -3.36418664072696
H           -4.36067609357645       -1.24244590163969       -3.21916614320304
H           -5.36401261531310       -3.33953526151983        2.88239466663774
H           -5.10038474179138       -4.86599080455251        1.99489324439505
H           -3.70307734434452       -3.86500690177889        2.38615071322548
H           -4.06274928290386       -1.55405241643184        2.80890071475271
H           -3.27993173169936        0.69201653336272        2.43775836256941
H           -3.50889160465293        2.33863249330211       -2.08962365231879
H           -2.07842002680870        3.24624951311315       -1.56305122129311
H           -2.08846828108612        0.30920277000263       -2.29237210961010
H           -1.72734061413369        1.75439650374582       -3.28386969405877
H           -1.01220802439223       -0.09690248715489        1.56040624654290
H            0.43594506287765        2.05422690433979       -2.26587875498192
H            1.77108485011339       -0.14359796704222        0.19113047460922
H            1.92511093573568        1.42321810447444       -0.60536638850274
H            2.72595731806544        0.39177848666930       -2.66752979391024
H            2.47439025440430       -1.21843775824636       -1.97408772936677
H            4.48077314763580        1.89727908892936       -1.70307431237465
H            6.66355253312430        2.01071313336711       -0.60843962399122
H            8.25636579792122        1.97721042223470        1.20748738330322
H            8.93323201847913        1.32104617362327       -0.30004039898110
H            9.60358983667541        0.82780081883243        1.28282845391072
H            6.27448690732622       -4.01496951219065        1.80836625526799
H            4.71461717235711       -3.14595493632592        1.62156490427662
H            5.45082037484467       -3.87254952970365        0.19607879684041
H            3.96126368878922       -2.09065339093470       -0.31108273278221
H           -0.48515547813449       -1.54254933794098       -1.93414392876092
H           -1.32820685996381       -0.77028427697284       -0.60204466500080
H            0.19615684869012       -1.58555989259956       -0.28775440502288
H           -3.28442810179656        3.89373800244542       -0.04165430718480
H           -3.62167331736152        2.81004107880817        2.75828169602409
H           -4.95651907310217        2.72512526342929        1.57375036333243
H           -4.27324647579874        4.29237035788108        2.02563072355921
H           -1.10979301278205        2.82575596485663        1.73470827072867
H           -0.98449377988639        3.83718656406434        0.28519601871609
H           -1.65118722908970        4.52655004437967        1.77944439505043
H           -0.04050399586960        1.32295185968358        3.91181341263228
