72
 energy: 62.427239630511 xtb: 6.6.1 (8d0f1dd)
N           -1.26178322346098        1.80150229162421        2.78465310713602
C           -1.44087962644073        1.31608669264357        1.64787773723405
C           -2.60273595157393        1.82927404305282        0.30789308601998
C           -3.47780560532538        0.61812106404322        0.45364489103201
C           -4.08724977568151       -0.01721212754602       -0.61085524991874
C           -4.67102382758204       -1.26113673025104       -0.47039910153580
O           -5.34874538322300       -1.88024462501213       -1.47507838038725
C           -5.57278487477760       -1.16086462024703       -2.66136753255417
C           -4.58739640686855       -1.96157744086094        0.74790594568106
O           -5.02389738948326       -3.25084220424118        0.77008369398482
C           -4.73718082044441       -3.97111126937043        1.93416869493327
C           -4.07015118194244       -1.31443726795909        1.84311345122932
C           -3.59181799594589       -0.02336329753055        1.71103627247658
C           -2.28517752732349        2.20224259405477       -1.18528545025442
C           -1.50845063639336        1.24573622952777       -2.08197681498448
C           -0.02993227895841        1.13909683149708       -1.87083524038977
N            0.57380802450900       -0.02793391022362       -1.45950559906521
C            1.91552981014987        0.10788607439999       -0.97914693943575
C            2.99282448639355       -0.35147652709261       -1.97086510583653
C            4.30758528885459       -0.23774061169304       -1.26026625499812
C            5.02901316226788        0.94120325119701       -1.27035688540693
C            6.23987117690847        1.02617327400118       -0.58592734916881
C            6.76452903934816       -0.04645471153968        0.13380113195617
O            8.00404456093806       -0.06883060263941        0.78240688215655
C            8.85038652873188        1.05869431623827        0.67732487652830
C            5.99126652891426       -1.23997395369478        0.19499015801376
O            6.56746352099788       -2.25247669894980        0.93413865804923
C            5.87188629182531       -3.45364360524396        1.15088521536351
C            4.78760586771325       -1.30818162630945       -0.50093964324489
C           -0.21302780800310       -1.15348302681281       -1.03552821263814
C           -3.25520600040986        3.17645672196881        0.79784532675277
C           -4.30984693048210        3.18226113064508        1.89655178650395
C           -2.08600767228953        4.10616670591043        1.12628306316290
H           -4.13566650550207        0.51716788612507       -1.53446551236310
H           -6.12425750681480       -0.23288013738732       -2.51117228188592
H           -6.16434715102855       -1.82557973009300       -3.28633365539760
H           -4.64480387220075       -0.89631844705357       -3.17185859766795
H           -5.24962275491947       -3.54041119877780        2.81619293318756
H           -5.10335160930503       -4.97629171169099        1.76587891104837
H           -3.64858345873476       -4.02510195657372        2.06505301705495
H           -4.00712677423361       -1.83186082077601        2.78959525055671
H           -3.24180803161330        0.42710949528891        2.61654557077179
H           -3.23418443837299        2.46002820680732       -1.67665588124211
H           -1.67411569513218        3.10785437913023       -1.19047815461570
H           -2.01832711548690        0.28938862279075       -2.05953095299461
H           -1.66515564230217        1.74251259694913       -3.02998451295548
H           -0.96726823458530        0.45334505830918        1.45270204192117
H            0.65348117160948        1.80360857418604       -2.38882577007669
H            2.01368152899798       -0.46901535762991       -0.06105450504250
H            2.13314004124946        1.14350689445001       -0.72828044943636
H            2.97601156697265        0.26856838433095       -2.86824124945561
H            2.76889852228450       -1.37594077828294       -2.25247585944484
H            4.66846641348129        1.79383361983150       -1.83348020337742
H            6.80372389530622        1.94514790960892       -0.64522229712541
H            8.40254910996275        1.94220615615277        1.13468444862892
H            9.06469849728047        1.29424267775320       -0.36485582151502
H            9.79900239910735        0.82529764831211        1.18007693414776
H            6.50427585347413       -4.11414375367147        1.77350780978404
H            4.94415429811247       -3.21998886301525        1.66501640033699
H            5.61692816728075       -3.96121277914392        0.21306927203003
H            4.19804155889924       -2.21503754276935       -0.48904665561198
H           -0.46031572875910       -1.77197301916189       -1.90028268584125
H           -1.14810564490126       -0.85285115334813       -0.56936995656359
H            0.32544818843979       -1.75632084666046       -0.29220013798042
H           -3.74057029718251        3.58024580818836       -0.09136002167193
H           -3.84870313556762        2.87467402516508        2.83411372051218
H           -5.15047888925567        2.48473716355159        1.66747247437173
H           -4.72825022951078        4.19999292028514        1.97588829490162
H           -1.40924761604552        3.57666192900286        1.78969779734961
H           -1.55716843819559        4.36854641547325        0.21381430636872
H           -2.42587562540818        5.01192202888384        1.60708945604427
H           -0.77525954275567        1.48434554647778        3.59352051984007
