72
 energy: 69.409156136832 xtb: 6.6.1 (8d0f1dd)
N           -0.18266207150463        0.51617567918307        3.57487689895552
C           -0.47775724249715        0.55697051020916        2.36997810364887
C           -3.06666855917935        2.03560815558495       -0.35182577704330
C           -3.53501100466079        0.76409534658765        0.02295569178919
C           -4.08127783830060       -0.12681061352543       -0.94698679725077
C           -4.50059653287900       -1.39455947604522       -0.62718519331353
O           -5.04988379083284       -2.28539233029839       -1.51158307032944
C           -5.32443350953154       -1.85959166032856       -2.81829682018127
C           -4.37774743436922       -1.87066293396604        0.69896566292604
O           -4.78503479497128       -3.15967973253671        0.90939924662578
C           -4.73766672589367       -3.67213648440551        2.21314838502973
C           -3.87830544027460       -1.01149782894656        1.66563849455507
C           -3.47779115452241        0.26832899015666        1.34561330796658
C           -2.76825594578500        2.33840363626156       -1.76432527738610
C           -1.69418406111707        1.38575407105188       -2.46705879820525
C           -0.38072540692394        1.43910995598544       -1.85365112747034
N            0.14831300905859        0.46848179243315       -1.08911152887085
C            1.49311549665753        0.59084157514831       -0.59174571460259
C            2.52456862367348       -0.05496954114310       -1.54187460338012
C            3.89872796356391       -0.01176978407501       -0.93845688230692
C            4.68620567317300        1.11881762073319       -1.04580985724733
C            5.94965653610510        1.16189253697274       -0.47244550515549
C            6.44424883406727        0.07110836911935        0.21982184716097
O            7.66625507434327       -0.00186515882273        0.81131673079262
C            8.53445191818508        1.09836718500123        0.71004588362951
C            5.64484036945385       -1.09022319680800        0.33936095764945
O            6.21206368504139       -2.11579628898887        1.02856918910672
C            5.51032361512678       -3.32773409616157        1.14415699129150
C            4.38723316200109       -1.11169523636215       -0.23474135834218
C           -0.47712451980363       -0.82466890623038       -0.98065074403258
C           -2.78765500868530        3.16695217963298        0.60689687597842
C           -3.78785274105314        3.29747301301493        1.76561471243284
C           -1.34245736451298        3.16412806761414        1.11792890237281
H           -4.23976092098388        0.23719133094780       -1.94839494796017
H           -5.99241776197837       -0.99109890784628       -2.83263227944363
H           -5.82171359624059       -2.70109179616033       -3.29947127737519
H           -4.40828073540640       -1.62112777966464       -3.37239051477894
H           -5.37647978522949       -3.10414306044146        2.89864201288704
H           -5.11249857737561       -4.69188959196141        2.13524555899156
H           -3.71502296915010       -3.69328682218376        2.60722638171523
H           -3.79337068670084       -1.33837354524389        2.69128503424518
H           -3.08224906386733        0.88401097008910        2.13198666758219
H           -3.66278958782095        2.26652663309697       -2.38463495257659
H           -2.38304219174370        3.35495029807064       -1.86426575203335
H           -2.09650911255345        0.37649638496731       -2.48526769433749
H           -1.61955265515671        1.75645826668364       -3.49176026579721
H           -0.94358278889566       -0.29262090355257        1.88140344176115
H            0.18053761897615        2.35777033383165       -1.90305796856272
H            1.55044691743371        0.10893030258676        0.38758038398436
H            1.73931646426999        1.64646120130701       -0.46305804375464
H            2.51331703842659        0.48563949490274       -2.49038739862281
H            2.23703016145446       -1.08985877331716       -1.73366302196515
H            4.32729841115747        1.97892674836498       -1.59109771824689
H            6.54297069577212        2.05587178837446       -0.58065487901962
H            8.11775068564055        1.98935705141226        1.19152206759443
H            8.77697912222282        1.32811103838661       -0.33288740370155
H            9.44201316730287        0.79927465062038        1.23225503892036
H            6.16934075564284       -3.99193778054365        1.70122952974239
H            4.57327415027633       -3.20375814366774        1.69727878440249
H            5.29999606675119       -3.76809123846944        0.16357456366992
H            3.77171140005649       -1.99467473383707       -0.15453983502815
H           -0.50261410758454       -1.34422722413908       -1.94403381518666
H           -1.50179593301089       -0.72310966552431       -0.61543363349450
H            0.08686124929458       -1.43363327593928       -0.27826706077304
H           -2.90428245107987        4.08258526697316        0.00947950130393
H           -3.45979289098222        2.77251736551857        2.65787728458552
H           -4.76416327911862        2.91440015225060        1.47850967648164
H           -3.89850087913783        4.34757154441877        2.03028678012334
H           -1.09255964134787        2.19953120914532        1.59123209611491
H           -0.64876969007212        3.31467946734702        0.29239939224368
H           -1.19900411409175        3.96292358039307        1.84215963063293
H            0.23489589456584        1.31857358352550        4.03867213697157
