72
 energy: 17.442928411967 xtb: 6.6.1 (8d0f1dd)
N           -1.76127854943018        2.40087694448464        2.74436678916244
C           -1.67191295820412        1.79451793024518        1.64182779006296
C           -2.66058545760818        1.89860601371087        0.48189818718471
C           -3.45207853547373        0.62101552353275        0.48739661502231
C           -4.20215677422499        0.11013750431105       -0.56448221072055
C           -4.78228657807456       -1.14374824297888       -0.49073487489741
O           -5.58867011868337       -1.69348089014954       -1.44065298825029
C           -5.97614356690852       -0.88036832695154       -2.52029504773498
C           -4.51577375829488       -1.96164242163435        0.61370123491710
O           -5.03188751605451       -3.22050308739874        0.60252010680192
C           -4.67024590022240       -4.03132192419984        1.68746006252981
C           -3.74502881858365       -1.46543423709461        1.63738818073653
C           -3.24517939322116       -0.18887748452243        1.57419076264471
C           -2.08144063250530        2.21853381410372       -0.95878573888682
C           -1.31471824594833        1.23376800556326       -1.85442217352545
C            0.10211871650271        1.13573523739154       -1.36361667331672
N            0.67622576978711       -0.09717397355270       -1.04513697176373
C            2.04501432115788       -0.09599896444238       -0.62265658839711
C            3.05907093084869       -0.54775482456806       -1.69725217477337
C            4.44607528559707       -0.41101567305474       -1.13955986513108
C            5.15696511197078        0.77590888759882       -1.22147311564235
C            6.39299978411843        0.90679955962655       -0.59608997576856
C            6.96252723750381       -0.14607660821241        0.11162692298966
O            8.22419517776818       -0.13368274691481        0.68603342233947
C            9.00368730791888        1.02329062856572        0.50712035932506
C            6.21659238749468       -1.34677962058464        0.22154412115085
O            6.78796890833000       -2.34574488590612        0.96600733696912
C            6.08654083307604       -3.54394337030012        1.16191579118902
C            4.99304583294997       -1.46038428620281       -0.41087824034719
C           -0.11962462152559       -1.27670172848994       -0.83850496782153
C           -3.59748101406307        3.15395124649991        0.73426619858617
C           -4.53313133834403        3.02475723093238        1.92809688235388
C           -2.69018274916844        4.37103352255125        0.87407203564816
H           -4.36098192680090        0.72317634924611       -1.43162272171982
H           -6.48678711550264        0.03386576690053       -2.20492814784184
H           -6.66006644434605       -1.48259248452912       -3.11304085744342
H           -5.12476579874772       -0.58546165427963       -3.13216962848745
H           -5.01710357948612       -3.60290106850869        2.64312110731928
H           -5.15942672710239       -4.98611190055757        1.50520530233684
H           -3.58246005250633       -4.17617476570141        1.71323870816063
H           -3.52431138132502       -2.05568771114489        2.50375559512246
H           -2.67238966223312        0.18394994990601        2.39362198108218
H           -2.91653041826719        2.66953662309537       -1.48371146637824
H           -1.32095990137343        2.98271501995130       -0.81406504870430
H           -1.80774697936687        0.27125952963468       -1.86464160030544
H           -1.32459644867566        1.57982638648415       -2.89483056606111
H           -0.81227182971254        1.25139688378230        1.35078883318129
H            0.84647476117757        1.86418914983800       -1.66222882238551
H            2.18342826112914       -0.73936902702452        0.25353362700283
H            2.30386478495797        0.92566778755221       -0.34329183475242
H            2.93169239321845        0.08861975222992       -2.57212203271216
H            2.83682841372860       -1.57746337597491       -1.98200692480235
H            4.74499840690028        1.61534265545979       -1.76685509980182
H            6.93990441509674        1.83228269746699       -0.67271976844561
H            8.53935465696764        1.89589453903617        0.97854613257589
H            9.14758929031062        1.23966649209442       -0.55454228851750
H            9.98199965959416        0.82696530437385        0.95413274578404
H            6.75165165849488       -4.22233554903365        1.72073445732245
H            5.17915865887077       -3.35472802403508        1.73459650630850
H            5.81087291203575       -4.01028170025616        0.21029711582565
H            4.41986293896450       -2.37077424224511       -0.34335415152035
H           -0.31442350994284       -1.80208628433631       -1.77197672775938
H           -1.07521318972228       -1.04539097325727       -0.35762494352200
H            0.40040718230440       -1.96050548169789       -0.15912960748449
H           -4.21096499569522        3.30507247358990       -0.16015562120456
H           -3.93681467183627        2.91729710388209        2.82474948314033
H           -5.13650427636836        2.10445153312583        1.85480739159294
H           -5.17190523567402        3.91279262995064        2.02850204926052
H           -1.92339683195386        4.13393676620334        1.59253278415980
H           -2.23238926603841        4.61441066975766       -0.07880903236154
H           -3.25108814203388        5.22357529578135        1.22644923120233
H           -0.99537889229536        2.35827404313005        3.39958268290593
