72
 energy: 8.336029673723 xtb: 6.6.1 (8d0f1dd)
N           -1.79090751180265        2.65724010725835        2.60652945812570
C           -1.68346521881037        1.97063593603595        1.55125928866635
C           -2.71423381313018        1.95975092904036        0.45006815233845
C           -3.41489344192482        0.63298032616250        0.44862794527400
C           -4.24949833567731        0.15762017202393       -0.55902753130667
C           -4.81490174688805       -1.10409527096981       -0.49932072633507
O           -5.66677332007434       -1.63309858694422       -1.42450387455159
C           -6.10856026323652       -0.79593482503004       -2.46616708387163
C           -4.48099143829714       -1.95429868416014        0.56287151300993
O           -5.02498241817137       -3.20363095964469        0.54501409300596
C           -4.65449982898211       -4.04734853493276        1.60347924924678
C           -3.63312062982961       -1.49234598529413        1.54781834075982
C           -3.12124355351666       -0.21437802086885        1.49103673239421
C           -2.09671426181737        2.24634539281027       -0.96840936914509
C           -1.27558664104903        1.22976019392441       -1.78718806922824
C            0.10156548887304        1.13249483499708       -1.21104002527102
N            0.68577439817479       -0.09903487291457       -0.87484172698628
C            2.06101401088424       -0.12433298356951       -0.46625732046293
C            3.05922594851895       -0.58153458899084       -1.55892514423561
C            4.46322482254826       -0.44917089528259       -1.04975115710121
C            5.17693198916686        0.73061137877194       -1.16620866532242
C            6.43221419560717        0.86967886369432       -0.58935543103402
C            7.01592510497827       -0.17782638811991        0.10616107035889
O            8.28016061734665       -0.15674409246928        0.65100159960488
C            9.04023762709357        1.00788138662860        0.44820519437675
C            6.27908579181711       -1.37789554764564        0.24007556523950
O            6.85974962201748       -2.37177306422657        0.97587028561237
C            6.15736076098332       -3.56959836494867        1.16491245897535
C            5.03545076433252       -1.49797928262641       -0.34307513665524
C           -0.09357343416851       -1.30466448612307       -0.75991992018435
C           -3.71682541518438        3.14159399371507        0.68204484953808
C           -4.57639141187304        2.94587644368245        1.92718606222083
C           -2.90566648233801        4.43181564578574        0.76261340330924
H           -4.46261232881369        0.79197097424168       -1.40032953326416
H           -6.60549970377554        0.10793778162282       -2.09854333044338
H           -6.82110974304486       -1.38230187834628       -3.04291400439077
H           -5.28699390457121       -0.48761273565604       -3.11331914755378
H           -4.95034386733088       -3.62252631463695        2.57595300614287
H           -5.18310182749306       -4.98273324904476        1.41888956251241
H           -3.57185251420705       -4.22865709618271        1.59961337442498
H           -3.36393698289851       -2.10804726645656        2.38558524492875
H           -2.48658855514923        0.13289009605303        2.28413476739216
H           -2.95973663964288        2.59628144794428       -1.56319242093141
H           -1.41189309454046        3.08382758085342       -0.86262381772844
H           -1.76450480753459        0.26462079223326       -1.79596376904590
H           -1.22763166372513        1.52209450659855       -2.84679426787211
H           -0.80748731144509        1.40457030736264        1.19648807765163
H            0.81591390639652        1.91088874776960       -1.44186584238838
H            2.20657286096426       -0.77659761526188        0.40797900990142
H            2.33099391663403        0.89345859789783       -0.18711907819129
H            2.90523402281683        0.05137962371459       -2.43415523332213
H            2.83681331968177       -1.61605736009874       -1.82597898452298
H            4.74654027411610        1.56592256244943       -1.69740062396549
H            6.96275502212229        1.80155722166917       -0.68251429943786
H            8.57582014796606        1.87816878560284        0.92533814006943
H            9.16548534685682        1.21689284013850       -0.61881651694062
H           10.02368306271838        0.82429711719730        0.88258038063035
H            6.83562312589749       -4.24294292836015        1.70548727196339
H            5.25580934728076       -3.39734505951505        1.75462672269436
H            5.87695645384987       -4.02567846675670        0.20967127206650
H            4.46616972108654       -2.40666144710216       -0.24312365594190
H           -0.26363443704310       -1.79351422179219       -1.71967765702686
H           -1.05955261205209       -1.11073257100744       -0.28262572914389
H            0.42934338821546       -2.01832161183335       -0.11685721664683
H           -4.36771133102181        3.21840578005879       -0.19339164244567
H           -3.88633907285057        2.90575228879610        2.75762206317273
H           -5.11053728414891        1.98492983831210        1.90699921746257
H           -5.27295740753407        3.78305029037069        2.06794238894743
H           -2.12463236188113        4.28588215211315        1.48394659228584
H           -2.46676573204491        4.66821936034710       -0.20105088532256
H           -3.52922699369582        5.25555965012409        1.08106426560663
H           -1.00441174115833        2.64327549199402        3.24213358641916
