72
 energy: -3.610750822918 xtb: 6.6.1 (8d0f1dd)
N           -1.65286421560876        2.85974061915121        2.34544564181492
C           -1.62738560078617        2.12584987879891        1.31624417699986
C           -2.76623333711307        2.04422405724238        0.33292159511196
C           -3.36558435708154        0.65571662452860        0.37318476016243
C           -4.30958576054985        0.22297276958265       -0.55780686588661
C           -4.85271306510298       -1.04824042539646       -0.51047921159935
O           -5.77055715187283       -1.54845050528241       -1.39159143381918
C           -6.28508947180037       -0.68080400371375       -2.37017118833435
C           -4.43418802459443       -1.94155703673799        0.49120129589655
O           -5.00677596929041       -3.18017924031662        0.46003039046358
C           -4.65208572361899       -4.07374995343125        1.48250660554678
C           -3.50220640032157       -1.51474552398226        1.41806905461854
C           -2.97989061455309       -0.23162083518351        1.35709615021910
C           -2.18118103923915        2.30262304263218       -1.09220724087630
C           -1.26283512493205        1.20772020892208       -1.70310988068863
C            0.04566582893726        1.13657484436168       -0.99085153686747
N            0.65865644629037       -0.07611702644726       -0.65482553030919
C            2.03561705124883       -0.09224924853777       -0.26293829657311
C            2.99415811476882       -0.56663406964761       -1.38195164471724
C            4.41414819718075       -0.44915340969813       -0.91797735362430
C            5.13508785998139        0.71909151932268       -1.08596236793051
C            6.42905608560926        0.84068280892539       -0.59103735748113
C            7.03582823719700       -0.20596221719091        0.08416195711666
O            8.30687148841396       -0.19488818017788        0.57870947470425
C            9.06812711678133        0.96682281273523        0.36780003474583
C            6.30635354428971       -1.40162784366528        0.26344523242807
O            6.93652995462253       -2.38642616738778        0.97080249889507
C            6.25746810428898       -3.59808345494267        1.16073939286454
C            5.01815445885502       -1.50200626274790       -0.23346074745401
C           -0.06417773145905       -1.32044367471067       -0.66311241111539
C           -3.85507174988305        3.11398806850929        0.60926411466294
C           -4.55686282725469        2.84035696538579        1.93590919346057
C           -3.21832705931215        4.49895742788013        0.61330137945542
H           -4.59649315406885        0.88860952834284       -1.35439179153185
H           -6.75353329724565        0.20280819473595       -1.92470096773553
H           -7.03728328792423       -1.25122388661498       -2.91341205071232
H           -5.51118214356423       -0.35043404614655       -3.06785013191744
H           -4.89316321810352       -3.66423990772082        2.47271506663306
H           -5.24005284649988       -4.97303398003441        1.29375332392809
H           -3.58411779436977       -4.32069309200554        1.44384665034820
H           -3.17460011876092       -2.16670446169099        2.21250981449228
H           -2.27548043624928        0.08387892697072        2.10887128473261
H           -3.03820370509872        2.46727731998052       -1.76198863555705
H           -1.60005975303777        3.22492109229642       -1.04352693935860
H           -1.76531884436428        0.24442032704925       -1.67840827826109
H           -1.08750946863029        1.42756550735964       -2.76937537778007
H           -0.74879524355539        1.57240180624775        0.88214195433213
H            0.71829613899474        1.97072093529308       -1.12653666615339
H            2.19199234076550       -0.72770598561254        0.62369278334871
H            2.31277752857515        0.92447459045313        0.00840434363014
H            2.82275555101331        0.05498182880097       -2.26660115568095
H            2.75157489978203       -1.60036170635088       -1.63497144390240
H            4.69003820863969        1.55346018169375       -1.60790832614659
H            6.94428248779356        1.77386631566739       -0.74269793814857
H            8.61993873706849        1.83975951242913        0.85580087414833
H            9.18315216901904        1.17615627380923       -0.70102802242397
H           10.04809721934884        0.76454369675221        0.79619634219129
H            6.96572057675039       -4.25185700497565        1.67377538965766
H            5.36578917602587       -3.46307216817546        1.77903625999992
H            5.97033273812223       -4.05327923655672        0.20662600469473
H            4.44810894628859       -2.40657281745064       -0.09790294112673
H           -0.22848426262161       -1.69644617511872       -1.67483447784466
H           -1.03832872571430       -1.20234488685159       -0.17906829320003
H            0.50192779695544       -2.07269958119089       -0.10540332002626
H           -4.58270660854518        3.07909933820168       -0.21053723136054
H           -3.78579856774574        2.89527179502714        2.69769963326791
H           -4.99254658475517        1.84024485298873        1.96009905738702
H           -5.32487950930408        3.59231842231140        2.13386246278686
H           -2.42991156093081        4.49637442276369        1.33914561482840
H           -2.81471753062067        4.74341637268015       -0.36467876061022
H           -3.94284835669810        5.26207085798703        0.89089558202247
H           -0.81969676883565        2.79599147579531        2.92412994073729
