72
 energy: 85.429450320945 xtb: 6.6.1 (8d0f1dd)
N           -0.43454302921721        0.72012963384647        3.34055217591331
C           -0.70083091292040        0.74186104652205        2.14163577500213
C           -2.94949707314898        1.95367766905386       -0.18202173591332
C           -3.50637186517008        0.71372900451487        0.18084905907772
C           -4.06219075309438       -0.10673294807977       -0.82602172276836
C           -4.54676680271409       -1.36099684951132       -0.56159434715531
O           -5.14406564487451       -2.13777808479620       -1.50945801115200
C           -5.31711438015069       -1.56808824685884       -2.77889662462847
C           -4.46215497242827       -1.91690451927283        0.73238311601568
O           -4.88086503821277       -3.21736849558951        0.86847907472258
C           -4.75655464972501       -3.80738277717568        2.13385532966057
C           -4.01229245534098       -1.11571548626539        1.76891680442078
C           -3.56451543614833        0.16929378146817        1.50983006194102
C           -2.62476514751238        2.28475977568761       -1.57850664933579
C           -1.64690529126476        1.30881777586498       -2.34595665792617
C           -0.23632585636621        1.27382644244209       -1.95827601734038
N            0.31288507455479        0.29624699583357       -1.21410267747257
C            1.65436573364791        0.42015836565707       -0.73080629960716
C            2.69557701881609       -0.16044309417900       -1.70070724542066
C            4.04735533369226       -0.09119374084371       -1.05799417789683
C            4.81150762392599        1.05736004232158       -1.12910262223045
C            6.05650090090843        1.11643268879660       -0.51221173781906
C            6.56216520427750        0.03342010418045        0.19206426449881
O            7.78484157620588       -0.01834615634680        0.82280637577721
C            8.65461544158476        1.09001185965950        0.73725119472425
C            5.77219488093756       -1.14099539170928        0.28539218776135
O            6.34728949106987       -2.16436286635426        0.98463614093489
C            5.63558194852444       -3.36327510369974        1.15065403242640
C            4.53185451570639       -1.18033229784798       -0.33341838972719
C           -0.37859114290507       -0.94728002570864       -1.00141998801732
C           -2.92611085670461        3.17499231509596        0.70746352268340
C           -3.96515432942761        3.25613512224544        1.83031589594333
C           -1.51682397575783        3.54118772897941        1.16557696645560
H           -4.17817845364423        0.32668408293850       -1.79798162330780
H           -5.93954943057227       -0.66718691742545       -2.76375932251389
H           -5.82695284903631       -2.33355406342579       -3.35526708340418
H           -4.35614889636799       -1.31925948709024       -3.24667784234741
H           -5.36752710746028       -3.29113682690833        2.88811880069893
H           -5.10337416441512       -4.83237992295253        2.02896370878133
H           -3.70591999472946       -3.83328669528387        2.43490466675010
H           -4.00654132998759       -1.50951048363772        2.78553541752521
H           -3.24060480194718        0.73168391060465        2.37362431233292
H           -3.54603686128073        2.31683377312866       -2.16093279537838
H           -2.14510055614580        3.26616726779506       -1.63184999866738
H           -2.09100263142858        0.31704792533629       -2.33611295345890
H           -1.71626129570072        1.75699964560435       -3.32693634616094
H           -0.97602587400635       -0.16684541192559        1.63536570014190
H            0.39158536933209        2.12344490718870       -2.18774098804986
H            1.72725133621823       -0.09025469443476        0.23369735984043
H            1.88844974539112        1.46961561346798       -0.57666059110498
H            2.68281414720865        0.41094948862311       -2.63289984263526
H            2.42424935199074       -1.19170370761678       -1.92482069250074
H            4.45001699097662        1.91378787347388       -1.68132349259472
H            6.63905415127086        2.02039387700129       -0.60154164439454
H            8.22817856835955        1.97950707468026        1.20763505398397
H            8.90096331160925        1.32222610224454       -0.30408335158180
H            9.57038105708269        0.82422157649806        1.27768703808874
H            6.24025133811050       -4.00451504239098        1.80988761415125
H            4.68113787059723       -3.14735997317655        1.62721387328502
H            5.42338892240396       -3.85231085619253        0.19070145395855
H            3.92211491296696       -2.07077312567487       -0.28239705689877
H           -0.49120220979614       -1.50156383021014       -1.93589002781547
H           -1.36397935687789       -0.75735227305491       -0.60107914349943
H            0.17134206928743       -1.55495209132836       -0.28461807890224
H           -3.20055790980608        3.93732592804168       -0.02857309570116
H           -3.58434903730436        2.80316693110671        2.74117952959863
H           -4.91175321094636        2.76203598846365        1.55306594176949
H           -4.19747620728644        4.30612389405531        2.03191854206988
H           -1.09200332659879        2.68892536478879        1.70625964583488
H           -0.90295568718378        3.73337223247588        0.28884412314767
H           -1.53661110277054        4.41822512554322        1.79919300471061
H            0.06248855047100        1.30099797556128        3.96291312357325
