72
 energy: 4.848847269658 xtb: 6.6.1 (8d0f1dd)
N           -1.79414378428980        2.75598943278300        2.52973017405699
C           -1.68513556245842        2.04358127485655        1.48986596097861
C           -2.74206361650401        1.99423648720047        0.41527402285433
C           -3.39788829368222        0.64095615515023        0.42478525670897
C           -4.27241580021077        0.17989264401594       -0.55745982098771
C           -4.83036270985505       -1.08540092032122       -0.50324737258539
O           -5.70445446475211       -1.60390711328654       -1.41583080646742
C           -6.17028148960880       -0.75523701309232       -2.43848919794285
C           -4.46607896730724       -1.95028835397978        0.53906294642029
O           -5.02158269969912       -3.19584198519315        0.51743675528510
C           -4.65023393413654       -4.05557520641142        1.56318877458754
C           -3.58635983700835       -1.50161179414854        1.50487455780871
C           -3.07070655600299       -0.22120161666183        1.44845199060545
C           -2.13007089406149        2.27542197769881       -1.00511756605649
C           -1.26816481062850        1.22667777567487       -1.75586175595241
C            0.08761033617721        1.13466923092850       -1.13404369985871
N            0.68247368711052       -0.09414603617067       -0.79943603611365
C            2.05946325853149       -0.12354168591122       -0.39717760417809
C            3.04709862186699       -0.58149288328070       -1.49872969841317
C            4.45696224610739       -0.45364265992910       -1.00615559616263
C            5.17695474566252        0.72016124411541       -1.14021902203043
C            6.44268052630734        0.85610937564349       -0.58831515928836
C            7.03313508912609       -0.18956012941413        0.10145045232891
O            8.29840147840038       -0.16734422579046        0.63244412895179
C            9.05340951991705        0.99919428747975        0.42062314449885
C            6.29873099696871       -1.38834284086977        0.24773904410870
O            6.88970372716525       -2.37998521754786        0.97668452323332
C            6.19120427122163       -3.58022485033076        1.16466757853820
C            5.04275531349802       -1.50455711525654       -0.31030190940507
C           -0.08308391993066       -1.31230745046116       -0.72511171716390
C           -3.77345456043804        3.13483359198818        0.65661057425401
C           -4.58768851442603        2.90797043244064        1.92880611265988
C           -3.01369910613856        4.45810931021821        0.70879737656345
H           -4.51243269027158        0.82467299051559       -1.38439698777201
H           -6.65937347586426        0.14266929778635       -2.04533950119376
H           -6.89601053657352       -1.33372597286620       -3.00831224407066
H           -5.36285186260014       -0.43933193590581       -3.10130116537197
H           -4.92367642641272       -3.63375972833042        2.54283916637422
H           -5.19846134489444       -4.98014240960958        1.37809203964432
H           -3.57077746378147       -4.25588907577064        1.54516737341969
H           -3.29398464191198       -2.13035147895982        2.32764208807540
H           -2.41099033841842        0.11248925743893        2.23078394479654
H           -2.99948944448711        2.55133757707783       -1.63256969325983
H           -1.49042032621054        3.15307178537389       -0.91397355414770
H           -1.75679553880037        0.25906867549062       -1.75473193261876
H           -1.17912728038145        1.48916881170667       -2.82258728349983
H           -0.79883361988056        1.47269350757989        1.10843330933324
H            0.78839784600245        1.93387394715631       -1.33259179719417
H            2.20753342350775       -0.77415270785511        0.47889626530630
H            2.33534279400775        0.89096619728458       -0.11708871600307
H            2.88830062430148        0.04910085710244       -2.37546482632318
H            2.82020354355509       -1.61564048259574       -1.76194489485711
H            4.74491408043106        1.55676422020606       -1.66621784156775
H            6.96043756063432        1.79226390734344       -0.69959387305553
H            8.59143864640902        1.86923350237973        0.90038105345187
H            9.17247974126638        1.20526936275784       -0.64817089872967
H           10.03814420935520        0.82113574407582        0.85116125537560
H            6.87834594628500       -4.24882912037229        1.69508574946278
H            5.29261820203692       -3.41826572230094        1.76301863794142
H            5.90850157053435       -4.03332812492021        0.20868279745558
H            4.47558918137424       -2.41314244913635       -0.19588013258286
H           -0.24936456147421       -1.76309526870676       -1.70372092949016
H           -1.05287547640597       -1.14035344399158       -0.24779906055715
H            0.44523812341116       -2.04336390437278       -0.10622886208316
H           -4.44610068730403        3.17617914153040       -0.20394290920655
H           -3.85972513484416        2.90032497368150        2.72877804134653
H           -5.09257359243933        1.93252579593342        1.92876206125726
H           -5.30682809208101        3.72014966200834        2.09064810231256
H           -2.22727567735183        4.35837697310872        1.43026820182329
H           -2.58503177609993        4.69388602848703       -0.25993717841249
H           -3.66810772997719        5.26515120811690        1.01223388370323
H           -1.00451140392110        2.73400234430632        3.16233710773505
