72
 energy: 73.088680176432 xtb: 6.6.1 (8d0f1dd)
N           -0.28150613175057        0.59855344412557        3.50778225049961
C           -0.53275178758202        0.60488741826007        2.29247806655146
C           -3.03564087725135        2.00884618500327       -0.28344523593858
C           -3.52176753329909        0.74426789528424        0.09169922404732
C           -4.06858453841389       -0.12064646348246       -0.89322469222216
C           -4.51837368395544       -1.38195827121383       -0.59692728310799
O           -5.09536375527115       -2.21851520389073       -1.51152576791715
C           -5.31607257098120       -1.71750771592744       -2.80149936796729
C           -4.41379856789252       -1.89317400904787        0.71448745890617
O           -4.82556855843003       -3.19101482800163        0.89068034226208
C           -4.74661201820278       -3.73846182688859        2.17741158754774
C           -3.93836889717825       -1.05822714454657        1.71359544312682
C           -3.51631315051009        0.22462736874412        1.41811279126248
C           -2.71261675690985        2.31612178746077       -1.67973972891337
C           -1.66877586973307        1.34422001241398       -2.41036648176214
C           -0.30756231271946        1.35690428537921       -1.90574174909475
N            0.22828844113282        0.38619665275554       -1.14589258489129
C            1.57232314189266        0.50756004276531       -0.65773159040989
C            2.60801080372446       -0.10661981475280       -1.61920048181523
C            3.97187518966586       -0.05037264643248       -0.99725453366090
C            4.74808763956641        1.08883456667426       -1.08709335707768
C            6.00255735604360        1.13976540739282       -0.49172882763839
C            6.50243666224327        0.05290946418041        0.20667821428364
O            7.72483875456666       -0.00970059957769        0.81833028861458
C            8.59297581967945        1.09481936871013        0.72425290156974
C            5.70775432979275       -1.11479210129817        0.31312762456675
O            6.27908507663602       -2.13965449178002        1.00729023136148
C            5.57030203470781       -3.34416912104412        1.14741089615938
C            4.45878027112819       -1.14500760768818       -0.28356737507365
C           -0.42940483806719       -0.88410855745143       -0.98977538556575
C           -2.85084238018859        3.17917080728405        0.65400675553453
C           -3.86997870530514        3.27850888669587        1.79797402559881
C           -1.41240971146445        3.34398685323542        1.14593983469080
H           -4.20911653928640        0.27566011625073       -1.88087081682714
H           -5.96143907258143       -0.83170901911407       -2.80292573409200
H           -5.81981853659506       -2.52153518013541       -3.33243118507292
H           -4.37449986125382       -1.47322426846248       -3.30953666549508
H           -5.37305324589523       -3.19358591531073        2.89450950584620
H           -5.10837508281668       -4.76135714418884        2.08927117931094
H           -3.70991433732527       -3.76417526336369        2.52661928669384
H           -3.88953547968836       -1.41807652056669        2.73690881199706
H           -3.15689795724793        0.81229742605789        2.24580587704834
H           -3.61122061275458        2.28455296439815       -2.29526359112569
H           -2.27548068520955        3.31340154672921       -1.75356710916242
H           -2.09078198748067        0.34249138898068       -2.41472528972073
H           -1.67623368252761        1.75618570014815       -3.41495347954889
H           -0.94970227970420       -0.29175649987272        1.81818514806498
H            0.28913853539941        2.24557023868857       -2.03711621158502
H            1.63813457366438        0.01209505189506        0.31425173605607
H            1.81276724192069        1.55986717129530       -0.51683166328061
H            2.59590338227649        0.44915613236341       -2.55997514967213
H            2.32882875715094       -1.13995237160481       -1.82673272648434
H            4.38754265137837        1.94702399397222       -1.63582952031902
H            6.59026112706597        2.03901127115254       -0.59008566958440
H            8.17101327952897        1.98530430679384        1.20010032811547
H            8.83713554769432        1.32555151037759       -0.31827035100330
H            9.50469612982019        0.81385917828286        1.25610245336546
H            6.19673126004960       -3.99832782589879        1.76199815123306
H            4.62125733614792       -3.17089140009744        1.65921791744347
H            5.36148168110688       -3.80892483291859        0.17614964674466
H            3.84517765437433       -2.03098660500949       -0.21767351320732
H           -0.49603690520716       -1.42065583045105       -1.94024324395718
H           -1.43508463184743       -0.73836423468053       -0.60494069072646
H            0.12616538009795       -1.49318967397245       -0.28068795853449
H           -3.04825356121497        4.03190987888162       -0.00593301106732
H           -3.51505356467031        2.78408505395938        2.69707983097029
H           -4.83136761594123        2.83895223141558        1.51593040789998
H           -4.04283216679717        4.32826033636990        2.03770034341919
H           -1.09117188948105        2.42291928873550        1.64294641636745
H           -0.75813996900842        3.51667910702636        0.29409851225387
H           -1.33156307948424        4.18345643950911        1.82995843704582
H            0.20937106954144        1.33774494371902        4.03131096932635
