72
 energy: 104.805850806908 xtb: 6.6.1 (8d0f1dd)
N           -0.75086443022576        1.30810038105735        3.01402576835305
C           -1.06183822922887        0.92657302913375        1.91242259698925
C           -2.79688972742991        1.88024370188230        0.00696587647747
C           -3.48982030872266        0.66644271466360        0.32150193582496
C           -4.06206534535347       -0.07753493093682       -0.71870298337771
C           -4.59529183710851       -1.32508554666555       -0.50712003208814
O           -5.21855616169073       -2.02042085822388       -1.49923692196956
C           -5.37781540865954       -1.37447008414012       -2.73459695934428
C           -4.53967883829265       -1.94293797524972        0.75893016664633
O           -4.96305093135861       -3.24809778902882        0.83755424681990
C           -4.76317174576938       -3.90397528742164        2.06017026461267
C           -4.11962430458575       -1.19826481386618        1.84918929031854
C           -3.63155109266501        0.08782107096260        1.64627780698201
C           -2.47508384823282        2.24419782259574       -1.41514419686843
C           -1.60051093758072        1.26963533376744       -2.24100049677974
C           -0.13806763004830        1.14452919425478       -2.02494866991080
N            0.43622103757255        0.14956460921205       -1.32493896177384
C            1.77248411428482        0.28664695935587       -0.84501135638786
C            2.82630412014246       -0.24283244238286       -1.82169017920530
C            4.16015001765714       -0.15306397090435       -1.14730568143631
C            4.90537456310746        1.00929704158612       -1.19064484949178
C            6.13586901690226        1.07963019292402       -0.54330902896275
C            6.65051880808485        0.00165128068883        0.16820179133133
O            7.87497494440685       -0.03462271173750        0.81820262684732
C            8.74305880620837        1.08002196792291        0.73715628856621
C            5.86705178303996       -1.18233199656735        0.24385623687835
O            6.44335169460547       -2.20359847491835        0.95289368223403
C            5.73448575376999       -3.39958087081161        1.14988939543826
C            4.64131011998516       -1.23408561217369       -0.40726399146072
C           -0.29887685854295       -1.04427605253020       -1.02246418149577
C           -3.06548546678090        3.17506143132441        0.75605415257042
C           -4.11708899290383        3.22000126090653        1.86337894415227
C           -1.73841683785179        3.80978679197442        1.17033548243877
H           -4.14076341024209        0.40198161132966       -1.67020657369024
H           -5.96298126174485       -0.45344393706438       -2.67621297490278
H           -5.91405181570041       -2.08940405604026       -3.35241436111618
H           -4.41777836028492       -1.12233028685410       -3.19744524021126
H           -5.34657365649462       -3.43605958513309        2.87107719662891
H           -5.09477596321601       -4.92892954671420        1.92576227219112
H           -3.69109521912503       -3.92540764265403        2.28564225653923
H           -4.14347575508031       -1.65720834710199        2.84288617428636
H           -3.33278542903871        0.59429788271707        2.56136096773191
H           -3.42759295126509        2.37919178444325       -1.94445796551612
H           -1.94217380785977        3.20423944936190       -1.44582322441940
H           -2.08166678558758        0.29886569997473       -2.20887881382848
H           -1.74077360831551        1.75954093010941       -3.18682783461887
H           -1.01303167219395        0.00928555548962        1.46255206584398
H            0.51108582443085        1.91266211838917       -2.41590644008391
H            1.85496689183080       -0.24627155870656        0.10629244763584
H            1.99747116177253        1.33159258785320       -0.66568789678944
H            2.81252158695983        0.35131946033345       -2.73937644680144
H            2.57167388450390       -1.27092776815409       -2.06992412373976
H            4.54372295636353        1.86349615700327       -1.74813533521662
H            6.71141711177428        1.98959528411418       -0.62128083913735
H            8.30591629282354        1.96783410996676        1.19680837573966
H            8.99373459585957        1.31599271740536       -0.30028103337967
H            9.66747415193795        0.82867888869856        1.27395794356858
H            6.34680633240393       -4.04331559836648        1.80230642380168
H            4.78991440483722       -3.15896166252407        1.63016999549844
H            5.50326425738212       -3.91161731955427        0.20729716533437
H            4.03885799211586       -2.13119125486968       -0.37339557566417
H           -0.47631600879892       -1.62492601821188       -1.92717238140436
H           -1.25407741931323       -0.78642057250367       -0.60682294518148
H            0.24489934294650       -1.64488793117205       -0.29323193203216
H           -3.44365482336102        3.79420622281508       -0.06401804073118
H           -3.69541690051678        2.82714876516742        2.78651635157014
H           -5.04365837700511        2.65647376177448        1.60437512284451
H           -4.42351461215349        4.26277572543880        2.01441165661920
H           -1.18663620901278        3.09683776396122        1.77496790838710
H           -1.16084894902605        4.03154793662854        0.27600267393424
H           -1.90148789646431        4.71751964898360        1.73161376872960
H           -0.24060892168027        1.19335394620348        3.82295550419792
