72
 energy: 0.601340020597 xtb: 6.6.1 (8d0f1dd)
N           -1.74313477743122        2.81902918181329        2.44317103514665
C           -1.66559112915617        2.09238725853950        1.40852989748547
C           -2.76222814137975        2.02333198268782        0.37626456234107
C           -3.38400268244013        0.64946996460108        0.39875216693186
C           -4.29346058476699        0.20178182187765       -0.55795078555632
C           -4.84321207712828       -1.06682561877226       -0.50733602022276
O           -5.73930991647995       -1.57570484190700       -1.40547051474120
C           -6.22857549780873       -0.71655112772083       -2.40769895574595
C           -4.45018941880636       -1.94558867546051        0.51505513785916
O           -5.01430675233573       -3.18773713006013        0.48905064992355
C           -4.64984150975028       -4.06378800803890        1.52331504620866
C           -3.54338665400592       -1.50808885155031        1.46173032281017
C           -3.02542439006498       -0.22566334788198        1.40235663162174
C           -2.16099229761703        2.29921872781190       -1.04528749274514
C           -1.26526123479807        1.22189453419595       -1.72713179055762
C            0.06747957732935        1.13796677727210       -1.06050696169556
N            0.67064412958576       -0.08458794431446       -0.72584278835243
C            2.04800140348131       -0.10927127985369       -0.32898334133731
C            3.02091925708938       -0.57480166310449       -1.43975907958274
C            4.43679025191958       -0.45236260639158       -0.96174661645595
C            5.15860715144237        0.71822418423765       -1.11218751449133
C            6.44041870499356        0.84645075903535       -0.58976355652155
C            7.03878706761735       -0.19879670874234        0.09328270505587
O            8.30650167874711       -0.18032927326677        0.60704282291710
C            9.06267585447966        0.98550253648691        0.39419670387378
C            6.30622651518097       -1.39596538716583        0.25507294428838
O            6.91461947434927       -2.38443883428420        0.97452454534279
C            6.22456651151158       -3.58959084941531        1.16312359032695
C            5.03372346117086       -1.50421145385005       -0.27258129236268
C           -0.07359411512014       -1.31739683963692       -0.69313753019800
C           -3.82062910220663        3.12665934750698        0.63306316579236
C           -4.58278793124673        2.87396784980807        1.93267689258903
C           -3.11755039895769        4.48062449218503        0.65892749145788
H           -4.55704081188692        0.85687890119162       -1.37012764283745
H           -6.70800236901469        0.17508172945234       -1.98924413359233
H           -6.96725009897719       -1.28927438374713       -2.96737000794604
H           -5.43614046624789       -0.39396604072630       -3.08588518997228
H           -4.90423617918785       -3.64637215908374        2.50914505259549
H           -5.21838803124393       -4.97596915045674        1.33644419267747
H           -3.57575018334950       -4.28725657643594        1.49342293856910
H           -3.23164853930728       -2.14896060696189        2.27135504921983
H           -2.34295756088689        0.09923973388883        2.16967424538551
H           -3.02548793900693        2.51216285799414       -1.69713100841949
H           -1.55766865088300        3.20512636328902       -0.96814327669972
H           -1.75662270809943        0.25339394709927       -1.71465921049159
H           -1.13348453754774        1.45910187346483       -2.79613861935968
H           -0.77890870052991        1.52780476211404        1.00068783708069
H            0.75546522396313        1.95474249936902       -1.22775964174732
H            2.20204314312793       -0.75252729227801        0.55228802707195
H            2.32624260037309        0.90517765231277       -0.05304721702475
H            2.85462393675023        0.05171153009124       -2.32033089460977
H            2.78520345520147       -1.60853981135131       -1.69815503607195
H            4.71993618235285        1.55417667396285       -1.63584840848268
H            6.95317848693491        1.78311281764514       -0.72070539966841
H            8.60691671247756        1.85665949482135        0.87806808057954
H            9.17840487347618        1.19282887530626       -0.67499415102712
H           10.04548264954247        0.79506856325210        0.82207704910379
H            6.92193208244147       -4.25168769482355        1.68419321743888
H            5.32919912964248       -3.44074996300882        1.77108013354598
H            5.93990069486026       -4.04186912259130        0.20718321682078
H            4.46625427650396       -2.41143036882124       -0.14748861596831
H           -0.23758206463615       -1.73067201225566       -1.68883612303382
H           -1.04661611616625       -1.17146284536278       -0.21353293577752
H            0.47000186817292       -2.06175232124058       -0.10236727064622
H           -4.51832186555562        3.12988442445710       -0.20979550790090
H           -3.82696091939789        2.89709918217686        2.71019423980519
H           -5.04704480480732        1.88409470232248        1.94529216727595
H           -5.32604311002732        3.65725645360439        2.11286667781465
H           -2.32812322436377        4.42797221290379        1.38139353879329
H           -2.70109830964148        4.71884378982577       -0.31490132966286
H           -3.80542430298475        5.26774539181589        0.94868155866844
H           -0.92272510224117        2.77729800165584        3.04172525154360
