25
 energy: -4.660731838482 xtb: 6.6.1 (8d0f1dd)
C            3.20703670064435        1.25841964679349        0.09401706230938
N            2.34446561808660        0.09854810797962        0.03179313948456
C            2.62111352501787       -1.26699982131456        0.03421027994364
N            1.42110837826129       -1.96294692474443        0.00390015478221
C            0.40736276265233       -1.08545202199943       -0.01247828847122
C            0.95024519389547        0.18716505973916        0.00405723605417
C            0.14042724934113        1.32908083862664       -0.02571701210068
O            0.53842670767384        2.49351656961726       -0.07054760005990
N           -1.25618574766703        1.01873269568228       -0.03167697691359
C           -2.17959388336100        2.13626286888412       -0.04564591743073
C           -1.82207189828042       -0.21772795587991       -0.04834916323895
O           -3.02315995818168       -0.40408214823396       -0.06893367739431
N           -0.93986219621098       -1.31541983064392       -0.04058218270713
C           -1.50266072484548       -2.64321787314912       -0.06243586859604
H            3.71831283238418        1.36373774842455        1.06079839894322
H            3.98693557672642        1.21710597594354       -0.67839482513381
H            2.57075895737818        2.13618287684449       -0.05018150582481
H            3.58422140876414       -1.71599515367453        0.04539400297540
H           -1.60974551063910        3.05969533300912       -0.02651565303268
H           -2.77695851899111        2.11012792803745       -0.95119765484593
H           -2.81338483034296        2.09953845652786        0.83448370836394
H           -1.22188608415580       -3.20413010100681        0.83097306508624
H           -1.19670240549073       -3.18630736782949       -0.95869694390222
H           -2.58443246420634       -2.52211651375307       -0.07703735538522
H            1.31550033197847       -2.96231084935814       -0.00853100719268
