25
 energy: 31.397685796081 xtb: 6.6.1 (8d0f1dd)
C            3.59043613635995        3.57151606601561        0.34599896227812
N            2.32198619013427       -0.80570478743702       -0.10671011040251
C            2.35682520561544       -2.09322619128291       -0.12423873422163
N            1.09934215260904       -2.65660426819877       -0.12558589136253
C            0.22714215252185       -1.61676642390114       -0.11308257428438
C            0.99910353958249       -0.46730663992742       -0.10278341636362
C            0.38829823356056        0.83410635349574       -0.08200452664389
O            0.94628987227761        1.90706717090694       -0.06646282345631
N           -1.01368101498534        0.74894872108487       -0.01037945015235
C           -1.73742548763427        2.01133676877873        0.07977062829788
C           -1.79263260345690       -0.38676018576485       -0.02613204046086
O           -3.00116299709547       -0.34114885976922        0.02737148860404
N           -1.12815586431735       -1.60894879018259       -0.10116124624585
C           -1.89359341021351       -2.82822724921355       -0.16197864301310
H            3.88264686261647        4.12585502243263        1.22926003529363
H            4.05254842108479        3.75921465044626       -0.59143957956037
H            2.69126651790345        3.02003602054559        0.26603719629236
H            3.25359438969450       -2.67597206930261       -0.12751220676518
H           -1.01423941832092        2.82202411167719        0.02841409030336
H           -2.44285368974105        2.08688605326466       -0.74823335611868
H           -2.27346695453916        2.04830890053377        1.02678654183332
H           -1.66840127129528       -3.44484209561255        0.70731718621279
H           -1.65463505209337       -3.36318680556358       -1.08160688045046
H           -2.94339760483877       -2.54309882487093       -0.15286297549049
H            0.88720759481992       -3.63777246285936       -0.13407770452713
