25
 energy: 42.274141337599 xtb: 6.6.1 (8d0f1dd)
C            2.89485110987745        2.48030876058506        0.62089131181867
N            2.41142240259254       -0.34208947359645       -0.39435147309638
C            2.56651947693231       -1.57425506345518       -0.00806825800081
N            1.37033756816106       -2.26022998176831        0.11860988975427
C            0.39575577996800       -1.36738718432776       -0.19409402779803
C            1.05315677787631       -0.18637873317190       -0.53164528704841
C            0.26253352739825        0.97676311567146       -0.86363056318411
O            0.57792624362989        1.93451743372959       -1.51662817377041
N           -1.02441058327061        0.87846804791129       -0.26646330355507
C           -1.72302444290342        2.09569081546522        0.10586763440098
C           -1.68051826185106       -0.28138261602148        0.01429359080371
O           -2.84168861953936       -0.27427809199182        0.36064363399717
N           -0.96709216332832       -1.49041127750413       -0.12362828134190
C           -1.82521865335168       -2.68559227154858       -0.14804797490601
H            3.81443281331395        2.60028263699465        1.14649597239783
H            2.83561012190502        2.61562450962302       -0.41817993757270
H            1.96355717845821        2.29097612279308        1.13083818214010
H            3.48616719225066       -2.06439454456970        0.25324626585850
H           -1.03337986595030        2.89611982829301       -0.08470564061199
H           -2.62971627278174        2.27146177775883       -0.44310681691572
H           -1.95533963543792        2.08011596364229        1.17430189934027
H           -1.79333670921623       -3.32299463957993        0.74770800165464
H           -1.75240231251741       -3.31061610977237       -1.04032454981801
H           -2.82432009079760       -2.25373490239579       -0.17642800256374
H            1.25336638543982       -3.22643050330621        0.36441546426666
