25
 energy: 44.929808012488 xtb: 6.6.1 (8d0f1dd)
C            2.93542558688911        1.97707950361829        0.41791096924723
N            2.37349547750250       -0.12398116772489       -0.20724848932479
C            2.63744333764547       -1.36757425080891        0.09782182273223
N            1.49740290727403       -2.14901588042222        0.18611445634127
C            0.44453523805240       -1.32665682085975       -0.05966499738746
C            1.01882260318715       -0.08109297696372       -0.28550199394719
C            0.26067601147804        1.07687510339551       -0.57807793937072
O            0.64762292839028        2.07627803727820       -1.13985828958507
N           -1.06731693473981        0.88558465852734       -0.13418914908594
C           -1.85521024661467        2.10251682228304        0.02389167443390
C           -1.70117902821349       -0.32237933385458       -0.01490064718805
O           -2.89800709312754       -0.36921356292146        0.17520115048199
N           -0.92075063406141       -1.49688928676133       -0.07746756109258
C           -1.73056774413986       -2.70616313947859       -0.08814808919608
H            3.75426752432086        1.93782816966467        1.09533445451563
H            3.25962397072613        2.26993575922716       -0.59830909968465
H            1.96473968397709        2.24825776626273        0.71264531751061
H            3.61627153121960       -1.79153576333892        0.19011577555474
H           -1.20578347664211        2.94740651528067       -0.06179990562497
H           -2.60614566160258        2.20707694549686       -0.71911929777457
H           -2.26589591195144        2.16712710661609        1.02527872308950
H           -1.59530831299245       -3.31631381365532        0.80729608949988
H           -1.56927812588654       -3.31195253573150       -0.97992823452153
H           -2.75898907035641       -2.33409309190513       -0.10209114921808
H            1.52716163116121       -3.15052476414804        0.26371493390458
