25
 energy: 43.902494566198 xtb: 6.6.1 (8d0f1dd)
C            2.89258400308489        2.10487116546386        0.48372853163008
N            2.37152655157588       -0.17095116738098       -0.26049715777675
C            2.61487936596487       -1.40563774201264        0.06537221147861
N            1.46360781786004       -2.16495359627148        0.19182084163633
C            0.42597249371222       -1.33396722871636       -0.08714443230153
C            1.02007979968012       -0.10318190212479       -0.34973936962275
C            0.26575431987353        1.05938560044295       -0.66880200562541
O            0.64250467299588        2.02602048225928       -1.28876175427222
N           -1.04960276543903        0.88114241679001       -0.17219465654111
C           -1.81830123008867        2.09846558022356        0.04141153842029
C           -1.69586760966099       -0.31467468771256       -0.01376095361523
O           -2.88471521720254       -0.34851456836306        0.22157972665077
N           -0.93781837317572       -1.50623909236325       -0.09482333618950
C           -1.76665035286181       -2.70551832856864       -0.09754657630810
H            3.75722001437270        2.10635247965623        1.09791503162925
H            3.09797386693744        2.30594111609365       -0.56282925927071
H            1.93037424645430        2.24017368070566        0.86691098857196
H            3.57752321195416       -1.85046189024518        0.21366152292289
H           -1.15927230821570        2.93380634089726       -0.06510145224154
H           -2.61402610125998        2.22234818314699       -0.65189331296118
H           -2.18645941605502        2.15025283055192        1.06520178265029
H           -1.64868418570810       -3.32098909385405        0.79856458556167
H           -1.62340581274647       -3.32028921774095       -0.98642824373730
H           -2.78615425152130       -2.30847304849367       -0.11138980827147
H            1.47143052764127       -3.15941133381248        0.32729611675986
