25
 energy: 30.552447882798 xtb: 6.6.1 (8d0f1dd)
C            3.62689710857243        3.67504443257904        0.28555875191143
N            2.31014463222612       -0.86409172679109       -0.05134355696503
C            2.33196361728866       -2.15120530318545       -0.12757291284506
N            1.06952184384270       -2.70100069854308       -0.15566857176814
C            0.20833653288570       -1.65293304010672       -0.10769630959685
C            0.99130159892855       -0.51080293540614       -0.05182947071299
C            0.40071743858865        0.80421508638483        0.01026267716061
O            0.97409056706927        1.86879375544091        0.10971960303267
N           -1.00597456369565        0.72569484878307        0.01720943066622
C           -1.74216612623512        1.98460510993059        0.08070476133452
C           -1.79448156406565       -0.40235303600787       -0.03111135861647
O           -3.00374434796651       -0.34198185187161       -0.01848048389079
N           -1.14734976609165       -1.63492862030821       -0.10310577629050
C           -1.92617228039796       -2.84812904665628       -0.16578890338603
H            3.84628756609387        4.21097967819484        1.20868144008015
H            4.20400429334396        3.84722299527529       -0.59651157333987
H            2.74429038113293        3.08740970036223        0.19194004272290
H            3.22138957410119       -2.74462198011183       -0.15484331237721
H           -1.01918176185360        2.79627593405489        0.07388572649849
H           -2.40273825975235        2.06246117874426       -0.77923161445051
H           -2.33625248708610        2.02413196018935        0.99354764370387
H           -1.70795389151795       -3.47676180840280        0.69898234622994
H           -1.70131247790717       -3.38669459082107       -1.08711314683323
H           -2.97475725713787       -2.55617773300020       -0.15322704866403
H            0.84790238051087       -3.68057245397295       -0.19432100218191
