25
 energy: 38.301026694485 xtb: 6.6.1 (8d0f1dd)
C            3.12149745691278        2.85108918792257        0.53088833590416
N            2.39277486897961       -0.50848128123625       -0.37791007173993
C            2.50180955814448       -1.75587297783381       -0.04938170417612
N            1.28237211704528       -2.39970728951912        0.05513737847436
C            0.34998535149999       -1.44405918485947       -0.18175631643962
C            1.04715654071724       -0.28317519649070       -0.45405410764244
C            0.33309777999725        0.94012285045231       -0.66058929034474
O            0.75673282610897        1.97142426650007       -1.09882205369977
N           -0.99667856429407        0.86039556682140       -0.21348092537534
C           -1.63540855829493        2.11798256860486        0.14438138743107
C           -1.70173479446404       -0.28495370522426        0.02253069404914
O           -2.87816062179479       -0.28051465156329        0.30919380812457
N           -1.00213962127685       -1.49016366340159       -0.10808071857968
C           -1.77920807760358       -2.69607176840694       -0.16037838004195
H            3.89864459983096        3.12011308042911        1.19851114566952
H            3.10585421747052        3.06164077257136       -0.50021061227804
H            2.18337256620927        2.51377099443346        0.88440252407605
H            3.41893498307819       -2.27930853397014        0.12476831815161
H           -0.93548876902975        2.90088925856001       -0.09811746739190
H           -2.54966130870482        2.29319300024545       -0.40134316755366
H           -1.79573300668864        2.11285681278334        1.21846138016018
H           -1.69918984845535       -3.32368219737015        0.72263977309010
H           -1.61594209384838       -3.27294122979666       -1.07109355151638
H           -2.81188714285411       -2.36037568275392       -0.18011955771252
H            1.12423271894837       -3.37523925946941        0.23566072832507
