25
 energy: 20.209839209077 xtb: 6.6.1 (8d0f1dd)
C            3.02464030378299        1.48194142161378        0.13153425000725
N            2.42757142640386        0.06488702101589        0.04652514609111
C            2.71143254036604       -1.33952767394657        0.07951481611843
N            1.50830244129513       -2.06338369937158        0.03076411154153
C            0.46413992566767       -1.20608908001453       -0.01453744618046
C            1.03051898361026        0.05935964024355       -0.03620958517673
C            0.21483680563438        1.18069037137742       -0.20107083358393
O            0.57232232544745        2.32184782187316       -0.52548409057608
N           -1.17451539737483        0.93899718582963       -0.05203228582887
C           -2.03003678254034        2.11637192706606       -0.03358243742864
C           -1.75889268989735       -0.27682798874597       -0.04401706116188
O           -2.96064902772030       -0.41319896244140       -0.01234021932976
N           -0.90346727039629       -1.40173647635558       -0.05138960194306
C           -1.59175517049218       -2.67600694710860       -0.06928423257322
H            3.53672171432814        1.76988371439502        1.04770578686948
H            3.74367614855564        1.70491197825366       -0.68827346694021
H            2.16428445339719        2.15889692780326        0.07813310195312
H            3.61584409519160       -1.90920430150907        0.06245031481081
H           -1.42005156079548        3.00168099115764       -0.03467006135195
H           -2.62352183142960        2.17571827206374       -0.92731531976056
H           -2.59654053434020        2.16255974216602        0.88329147280136
H           -1.38231973873918       -3.26198752434225        0.82662410320429
H           -1.35469008415920       -3.25135433399916       -0.96447198890965
H           -2.65620254085128       -2.43664116997727       -0.08473465767316
H            1.43253408325042       -3.07660928643198        0.03876304388375
