25
 energy: 42.574381715436 xtb: 6.6.1 (8d0f1dd)
C            2.87716231328186        2.23911637564940        0.53074146881350
N            2.38448299734799       -0.22400345509028       -0.30365286073000
C            2.59728479887476       -1.45868091237099        0.03589304610431
N            1.43080784249862       -2.19251525981592        0.16320994479696
C            0.41302638366779       -1.33903819047728       -0.12296226197410
C            1.03057258534871       -0.12450411312519       -0.40893331960020
C            0.25892553332410        1.03167932387197       -0.74742798003730
O            0.59627944965923        1.97243585540975       -1.41589894722286
N           -1.04051318148454        0.87941836931524       -0.20311157089290
C           -1.78526633501194        2.09657984216917        0.06323815673641
C           -1.69134842136732       -0.30423101501418       -0.01084994773127
O           -2.87089350065345       -0.32657156601906        0.26443006703167
N           -0.95271586697871       -1.50600749984930       -0.11274967392843
C           -1.80018451479932       -2.70045023818605       -0.10956054855991
H            3.77243326022612        2.28127835125306        1.09934334454125
H            2.95258552006594        2.32756891323291       -0.53390480673363
H            1.94599686851551        2.19817855344073        1.00754247042610
H            3.54324469204043       -1.92028118998080        0.23772784369764
H           -1.11743472858435        2.92492829405712       -0.07271343855224
H           -2.62057889553580        2.23702147826840       -0.58211580737400
H           -2.10815873190099        2.13391091743782        1.10587323179117
H           -1.70045373618534       -3.32226336915338        0.78719118898510
H           -1.67584769783694       -3.32475529953892       -0.99456025492385
H           -2.81213694096584       -2.28228573794659       -0.12427596250146
H            1.40640764590908       -3.17912312467335        0.34741013705046
