25
 energy: 41.463983645209 xtb: 6.6.1 (8d0f1dd)
C            2.96149838159080        2.60574561042044        0.59077679574204
N            2.41604092507981       -0.40243392707385       -0.40854302691046
C            2.54688849654534       -1.63541101406829       -0.02162797085533
N            1.34179217013301       -2.30566141915306        0.10034823255414
C            0.38427971698461       -1.39087523463246       -0.20127128902602
C            1.05945086486061       -0.22445732671290       -0.54432404927692
C            0.29411014484835        0.96091521256983       -0.83006861810554
O            0.64736813868712        1.95508887210076       -1.39835788258034
N           -1.01517852385322        0.87739080521839       -0.27889299396695
C           -1.68898278391644        2.09826627459220        0.12875829676099
C           -1.67579524954017       -0.27101098874488        0.03219909783583
O           -2.83255194311949       -0.25712865913320        0.39071874232405
N           -0.97484586741774       -1.48088227276638       -0.11261705147583
C           -1.81277336602081       -2.67768089723239       -0.15904024331875
H            3.84587465459078        2.76920044159078        1.15897820263391
H            2.88232646128657        2.78906455442887       -0.44230994147967
H            2.03045820019908        2.36906358136061        1.06130341613876
H            3.46556022065463       -2.13746335582220        0.21394960155888
H           -0.98912459476053        2.87989681371708       -0.09821334590816
H           -2.61930300073392        2.29096834144866       -0.38081031003979
H           -1.87784874505088        2.07056774230122        1.20847991918440
H           -1.80371244918860       -3.32365287649477        0.72531440034451
H           -1.70939746223227       -3.29065305286784       -1.05670743282476
H           -2.82086043992626       -2.27707498597539       -0.18350846771534
H            1.20679795027252       -3.27419109040729        0.33509468319004
