25
 energy: 49.197215371824 xtb: 6.6.1 (8d0f1dd)
C            2.96193025682152        1.70965255592676        0.27847778915018
N            2.41591539067180       -0.00289592020134       -0.08923489246888
C            2.70235078028700       -1.33076549386615        0.16651243430723
N            1.53816476163766       -2.10764115749062        0.12277869236026
C            0.47460002116440       -1.27397616898100       -0.02957813211454
C            1.03676089112057       -0.00967461923048       -0.15545457255914
C            0.24416549713739        1.12384469037479       -0.39581173740895
O            0.61413873108138        2.20431192407013       -0.84864273997267
N           -1.11579204336408        0.91166261375922       -0.08541034249605
C           -1.93547456925379        2.11117610440191       -0.00716333958876
C           -1.72407799360440       -0.30158273204374       -0.03462749383147
O           -2.92746970000048       -0.38931477042371        0.08027003115474
N           -0.89937145240300       -1.45177250728426       -0.06234213009146
C           -1.65592983957943       -2.69482202635524       -0.07852646967320
H            3.59980913333477        2.05880855955670        1.07453392350669
H            3.49491263949465        1.98234353588827       -0.66533461334884
H            2.02072163694385        2.20234113190729        0.36745718868342
H            3.62647176349965       -1.87658244515366        0.13832192128876
H           -1.30549681581402        2.97574992144146       -0.04565807622643
H           -2.58291503411886        2.19560358057296       -0.84599381719044
H           -2.43269127975659        2.17876189877640        0.94621479923734
H           -1.48588567305848       -3.29567240936876        0.81603424313457
H           -1.45842394124494       -3.28550007839841       -0.97315013585644
H           -2.70525793501704       -2.38720494436524       -0.09371008853263
H            1.55585917459240       -3.12158076399099        0.11843685191523
