25
 energy: 36.627292965985 xtb: 6.6.1 (8d0f1dd)
C            3.29021310505544        3.09062549114882        0.47167908511678
N            2.37037491222808       -0.60490733018343       -0.30592037466992
C            2.45490056518049       -1.87221201868986       -0.07880306034963
N            1.22140219702717       -2.48958225876550       -0.00210639591886
C            0.30981158847869       -1.49766716441731       -0.15699496794252
C            1.03368017712711       -0.33937010216122       -0.34135549653777
C            0.35868903133812        0.91124019922699       -0.47026366395869
O            0.84125377773653        1.97054948002842       -0.76041843896113
N           -0.99694535733833        0.83397414488316       -0.13936088715729
C           -1.62397213469505        2.12078802491659        0.13044104038502
C           -1.73759394600818       -0.30890781161483        0.00994753491245
O           -2.93032552356107       -0.30436548944344        0.21897273414067
N           -1.04138744478933       -1.51286432811681       -0.10207372023643
C           -1.78833383623848       -2.73349683092892       -0.16075219823797
H            3.92329199214325        3.46420868833299        1.23437456683595
H            3.40244405041691        3.31215275710909       -0.55019353913513
H            2.35410601346435        2.65295353092063        0.67482867792504
H            3.36904565362090       -2.41333705684011        0.03581160478022
H           -0.90056606274997        2.92029024389980       -0.07122525568798
H           -2.49444936153928        2.23412608437284       -0.51844475208032
H           -1.94057389333352        2.11644279072492        1.17507025807812
H           -1.60444821523297       -3.33295124544011        0.72205343237213
H           -1.52407028619381       -3.25695232532497       -1.07539972951984
H           -2.83152880244515       -2.43875861365015       -0.16946775549636
H            1.04578042870522       -3.46995102830989        0.11775770024616
