25
 energy: 32.527665934726 xtb: 6.6.1 (8d0f1dd)
C            2.97810802862613        1.55694191752813        0.19392424414271
N            2.43088048100284        0.06603515258302        0.01425046467660
C            2.72988002359429       -1.33742462783529        0.14117091689351
N            1.53812911503541       -2.08212352135703        0.05681311214241
C            0.47885643341664       -1.23823716133333       -0.02427992801588
C            1.04087650437414        0.02979706501363       -0.08692347409534
C            0.23168691213781        1.14972381665576       -0.29347746321658
O            0.58978169371096        2.26875712954691       -0.68981120793283
N           -1.14339089629010        0.92690298033020       -0.06611930078104
C           -1.98088586651883        2.11467233384961       -0.02393849018823
C           -1.73827256961924       -0.28676859175614       -0.03926040705990
O           -2.94212203296245       -0.40055284632242        0.03280128242238
N           -0.89439896397013       -1.42537471044012       -0.05785820479754
C           -1.62048226870534       -2.68439598604958       -0.07341240419336
H            3.53251758457042        1.91092756052600        1.05825038228123
H            3.60602565921697        1.82535388874680       -0.68129720232398
H            2.07311052805903        2.16871334704730        0.19667895064639
H            3.61748505221754       -1.94289289328979        0.09941477510940
H           -1.36099953741011        2.98946551520173       -0.03771057196248
H           -2.58317479082240        2.19056720220460       -0.90288164185127
H           -2.51842522959028        2.17083732904405        0.90761359935068
H           -1.43118739834880       -3.27745146904289        0.82252893280934
H           -1.40616275150107       -3.26989244790342       -0.96768039053018
H           -2.67804877672490       -2.40970030162661       -0.08698846824245
H            1.49870034856879       -3.09854992335465        0.06317555694886
