25
 energy: 35.728183245686 xtb: 6.6.1 (8d0f1dd)
C            3.37477242414696        3.20974325156632        0.44258975105512
N            2.35882507209947       -0.65303814775927       -0.25794130862837
C            2.43052935742942       -1.92897365214735       -0.09215543458706
N            1.19034016212573       -2.53283684657172       -0.03350022412698
C            0.28890426010604       -1.52568143567554       -0.14496627028158
C            1.02601287885556       -0.36866731287332       -0.28013549202571
C            0.36691062388420        0.89331579951757       -0.37171193199668
O            0.87270487390029        1.96200451104325       -0.58466206482203
N           -1.00222598503113        0.81263889189755       -0.10457322340459
C           -1.64630555878204        2.09705826510881        0.11651254559966
C           -1.75548337317158       -0.32719680802043        0.00207297835492
O           -2.95414285588201       -0.31689698730657        0.17288006611352
N           -1.06273430184823       -1.53101722445356       -0.10279534282293
C           -1.80242275440111       -2.75666994372802       -0.15976841952329
H            3.92773889299256        3.63396330243349        1.24387766531031
H            3.56644987182362        3.43016073454173       -0.56800251568388
H            2.44568951658788        2.72954413830571        0.57014233302973
H            3.34180926816029       -2.47978404092238       -0.00830840925769
H           -0.90766393420055        2.88922583039446       -0.06760662149718
H           -2.48203573056177        2.19661199265634       -0.58175563876651
H           -2.02329392915760        2.10823837667097        1.14108736487352
H           -1.56282960781674       -3.34348965507308        0.72002057224458
H           -1.52144960398925       -3.26780721720128       -1.07693962151888
H           -2.85103796745125       -2.47533899690817       -0.16105237401387
H            1.00622836096877       -3.51458101454829        0.05428801349522
