  25
        -42.09458939
 C          3.1239499258        0.9938648256        0.1553555353
 N          2.0231163884        0.0602143177        0.1480986246
 C          2.1696217521       -1.2343164304        0.3825529827
 N          0.9824195593       -1.8328801714        0.2873451759
 C          0.0377238481       -0.8785531847       -0.0138739320
 C          0.6976953651        0.3396600065       -0.0988363449
 C          0.2075503909        1.7777283843       -0.2798597234
 O          1.0200727891        2.6761475503       -0.5036568306
 N         -1.0930562604        1.8593688544       -0.1302395515
 C         -1.7253155588        3.1380887142       -0.1277709222
 C         -1.8083444425       -2.2436393689        0.4688642494
 O         -2.0736042731       -3.1581627555        1.1299062259
 N         -1.3101285146       -1.2783801582       -0.1932587909
 C         -2.1239687901       -0.5652389971       -1.1879841116
 H          3.6633774137        0.9256447771        1.0985532701
 H          3.8049919828        0.7677143582       -0.6648243238
 H          2.7270188344        2.0026460353        0.0146564081
 H          3.0970070449       -1.7234623843        0.6135411141
 H         -1.0124318720        3.9535699867       -0.2695161887
 H         -2.4795536261        3.1677550472       -0.9175699307
 H         -2.2391804208        3.2676204627        0.8284258832
 H         -1.7382217103       -0.7720094705       -2.1864762801
 H         -2.0240311392        0.5105977249       -0.9574421630
 H         -3.1585614498       -0.8869474644       -1.1151176155
 H          0.8137950939       -2.8217187636        0.4192308324
