  25
        -42.24015486
 C          3.2997440916        1.0825655216        0.0148617433
 N          2.2999025792        0.0484414511       -0.0019224548
 C          2.4985222495       -1.2827224339       -0.0054468891
 N          1.3776824486       -1.9769188989       -0.0049436438
 C          0.4072715116       -1.0561768105        0.0004435795
 C          0.9423582973        0.2313954562        0.0030040790
 C          0.1239924196        1.4042731061       -0.0030539609
 O          0.4506794039        2.5594049726       -0.0129864936
 N         -1.2723898634        1.0393240308        0.0013148490
 C         -2.2344637192        2.1313587395        0.0008364482
 C         -1.7442717036       -0.2118450821        0.0024332609
 O         -3.0525176145       -0.3395797214        0.0043673987
 N         -0.9469651929       -1.2854355560        0.0009393844
 C         -1.4276569374       -2.6557767268       -0.0008675455
 H          3.8081631214        1.1001999887        0.9802152249
 H          4.0375170840        0.9016996066       -0.7662658258
 H          2.8189301373        2.0450565961       -0.1506040405
 H          3.4605785605       -1.7514785474       -0.0099730930
 H         -1.6711462035        3.0627162522        0.0067787779
 H         -2.8593892286        2.0823539456       -0.8894119110
 H         -2.8679282992        2.0750353503        0.8844833358
 H         -2.0088302276       -2.8696793372        0.8974187783
 H         -2.0142184943       -2.8653647980       -0.8967921009
 H         -3.3607596759       -1.2605547614        0.0045703794
 H         -0.5365520621       -3.2840073704       -0.0050216882
