25
 energy: 6.139142870280 xtb: 6.6.1 (8d0f1dd)
C            3.24357343849846        1.26299583856566        0.10497614914889
N            2.37651668620474        0.11399183406655        0.02270489540572
C            2.72073203344132       -1.22819636821907        0.04267309295873
N            1.55725415783943       -1.96817689722898        0.02260934749317
C            0.46666437198319       -1.16295657060258       -0.01243474979180
C            0.97311997597166        0.15668032519089       -0.00815029227454
C            0.17475656368475        1.31680250547106       -0.03108428104835
O            0.51831579299352        2.50532209059780       -0.04056273094544
N           -1.19965681706106        0.97127639758370       -0.04246475956176
C           -2.16739123343996        2.05284568167026       -0.05224846170639
C           -1.73633381474029       -0.26418945920216       -0.04625745815184
O           -2.95140604284137       -0.36986247006856       -0.05230799943592
N           -0.91389615593515       -1.42573135171898       -0.04136161734168
C           -1.79524929757846       -2.62076793920714       -0.07020507687081
H            3.79308660865053        1.29641646408193        1.05277866695072
H            3.97881744758848        1.26640571673870       -0.70746365084990
H            2.62338580653060        2.16044262205285        0.03817484774500
H            3.71390199806078       -1.62402486227307        0.07103966904832
H           -1.60699014858654        2.98601731092233       -0.03171735154335
H           -2.78045884751780        1.98040226219280       -0.95067598105564
H           -2.81567753566427        1.96550307457737        0.81941011253525
H           -1.72761070710988       -3.26093510081349        0.80933952618320
H           -1.72669617581690       -3.21572263153904       -0.98131456508550
H           -2.79669831119182       -2.19156498336829       -0.06295229055651
H            1.56561513931425       -2.97409443104921        0.03838891798128
