  25
        -42.15943822
 C          2.8828514364        1.2354741719        0.5404785591
 N          2.1193834870        0.0496541956        0.2601918459
 C          2.5952808756       -1.1846138304        0.2264963945
 N          1.6052669843       -2.0356648282       -0.0688099334
 C          0.4280378652       -1.3222149777       -0.2055856417
 C          0.7631023500        0.0119993560        0.0301907375
 C         -0.0272602621        1.2406740865       -0.2514599105
 O          0.5002548594        2.1855182687       -0.7954451508
 N         -1.3626302916        1.2001141703        0.0612962312
 C         -2.2439785236        2.1905617564       -0.5318361935
 C         -1.9295216337        0.3567983584        0.9978204753
 O         -3.1026994783        0.3172826925        1.2119836741
 N         -0.7948113813       -1.8319973868       -0.4108309237
 C         -1.1111921633       -2.8604473309       -1.0826668116
 H          2.5930897110        1.6492936330        1.5076919756
 H          3.9427749736        0.9950217738        0.5540403195
 H          2.6795688622        1.9879311534       -0.2231030414
 H          3.6146478642       -1.4624132087        0.4152571784
 H         -1.6549083478        2.8660656513       -1.1472508586
 H         -2.9974162003        1.6865272213       -1.1382768414
 H         -2.7558709998        2.7488829616        0.2515163576
 H         -1.1885251635       -0.2229148924        1.5622791968
 H         -0.4268580872       -3.4360255117       -1.7049763420
 H         -2.1452136793       -3.1680241723       -1.0553614240
 H          1.6957787795       -3.0396276006       -0.1403858508
