25
 energy: -42.175399068606 gnorm: 0.005528133300 xtb: 6.6.1 (8d0f1dd)
C            3.28342200639995        0.98782863907563        0.04878610658767
N            3.41541296038436       -0.37604201688599        0.01852696374137
C            2.65723313502486       -1.37291064798055       -0.01023009914565
N            1.27779321107891       -1.51858573250064       -0.02206601780126
C            0.18034703348336       -0.70671250173362       -0.00929565974823
C           -0.05312653092973        0.69159714108602       -0.01263261972732
C            0.75407128139822        1.80800859238758       -0.02065659099015
O            0.71866243369746        2.99207892085850       -0.05905696927578
N           -1.44965432534393        0.86306995887453       -0.00591810830777
C           -2.19357745319237        2.09257868134640       -0.00615842396367
C           -2.07018244151931       -0.35679276166952        0.00190718327116
O           -3.24846531288023       -0.58861659288825        0.01113482958699
N           -1.04539815571834       -1.31037763030105       -0.00173982216186
C           -1.34441745828340       -2.71801505529955        0.00344126398653
H            3.72565469605691        1.39482470095639        0.96181506283531
H            3.77614365223682        1.43791542933974       -0.81661571672899
H            2.16945626223018        1.33772507403779        0.02329380127264
H            3.15228289025547       -2.33631677474070       -0.02925348815892
H           -1.52396076508763        2.94880333110770        0.01092161032704
H           -2.82194413522776        2.14077654399396       -0.89824739729705
H           -2.84695898356792        2.12273311394962        0.86832815700568
H           -0.95014457945506       -3.20699290394468        0.89674411938446
H           -0.97054880191856       -3.20970569913709       -0.89719004818366
H           -2.43241272374120       -2.80352850585433        0.01536322852630
H            1.00074361871884       -2.49510476247795       -0.04002974713482
