25
 energy: -5.515067904111 xtb: 6.6.1 (8d0f1dd)
C            3.25255950168084        1.19343806675002        0.07406406337637
N            2.32843901399408        0.09921290459942        0.01423894015475
C            2.65380395486980       -1.25576440524666        0.02188215129547
N            1.44830453261556       -1.95020062729521        0.00232029182471
C            0.41838514247353       -1.07194727471456       -0.01571401785602
C            0.93585653986907        0.21502861738851       -0.00860437469566
C            0.11839059670045        1.36801024508972       -0.00608720543254
O            0.48557255318787        2.54572129530172        0.00209817573270
N           -1.27148327281278        1.03701560275445       -0.02476303196510
C           -2.21978464530326        2.14106870446165       -0.03702461704284
C           -1.82134388083365       -0.20621456804825       -0.04539101832597
O           -3.02111854878588       -0.39247707876209       -0.06786575704808
N           -0.93218615468604       -1.30455147986375       -0.03967108588354
C           -1.48496060946921       -2.63870099114642       -0.06422720496640
H            3.63922084838072        1.30739502443704        1.09292014582153
H            4.11917296125008        0.96863594578491       -0.56340181348600
H            2.71418914606149        2.10282684039202       -0.18891525327022
H            3.63941096885101       -1.66581984512795        0.01681151391823
H           -1.65491846178010        3.07169198632129       -0.01221652344864
H           -2.82915133427144        2.09802290751819       -0.94008124784713
H           -2.87780763005809        2.07204743781503        0.82944580887223
H           -1.19157537858149       -3.19673919046500        0.82687536317435
H           -1.16582619931928       -3.17256959310709       -0.96181250058125
H           -2.57071404870790       -2.53735814766424       -0.07745921424113
H            1.34218635968848       -2.95061642184261       -0.00928054875220
