25
 energy: 151.353872998750 xtb: 6.6.1 (8d0f1dd)
C            2.23830595967625        1.75410423047346       -0.10778773110629
N            2.15335097429627        0.41522596322003        0.00744374684816
C            4.89129194728685       -0.67937026895472       -0.17639669132636
N            1.18265549202384       -2.20716324935806       -0.01857560648151
C            0.33747009169151       -1.25730894184704        0.00044406148574
C            0.89308999598529        0.05654343436619        0.05160785610615
C           -0.01491199202254        1.17111521035484        0.04664742740629
O            0.65119999832035        2.31104457773094        0.01640453256822
N           -1.34594251456433        1.01426964299392        0.05647739036136
C           -2.26823144041318        2.15534555082902        0.10502930497999
C           -1.93381470115834       -0.25809110936885       -0.01238983043120
O           -3.14073060409989       -0.36546993653015       -0.04590889069379
N           -1.06838509189495       -1.32678366248730       -0.04152080221666
C           -1.70309383660810       -2.63437699677715       -0.11057809331678
H            2.39307902379212        2.33580274100207        0.71586258760518
H            6.05327020555431       -0.70717366818980        0.12693792386713
H            2.80163993220774        2.18162494190431       -0.97326823456137
H            4.79187467561975       -1.73698033288237       -0.09997715686504
H           -1.66392547002765        3.05119951368224        0.18040008764663
H           -2.88017628477088        2.17223412977427       -0.79352659003109
H           -2.92285184486860        2.05834548297721        0.97166489481449
H           -1.51414056452231       -3.24534042741758        0.77214589559674
H           -1.44443447393144       -3.18170036018399       -1.01573614707106
H           -2.76816664167441       -2.43941277959154       -0.14020718444688
H            0.81576516799873       -3.13867846782972       -0.07758965681453
