25
 energy: 124.854799836116 xtb: 6.6.1 (8d0f1dd)
C            2.82250553601850        1.56567572888766       -0.03959564799722
N            2.43384338185584        0.20399702144150       -0.02728121449155
C            3.54222791351552       -0.61189523163522       -0.02995114303345
N            1.43492073630440       -2.05662241801307       -0.04684628388324
C            0.48295155133977       -1.20584837573294        0.00554586227220
C            1.00749120346605        0.12610125156954        0.05524298566443
C            0.12221421709400        1.27548413327143        0.09115870797213
O            0.46025906330816        2.44909520372287        0.13837718161696
N           -1.25006497714802        0.99039737160048        0.04618523703444
C           -2.19237879253054        2.10960750062986        0.07700655157358
C           -1.80821331930011       -0.25901415585694       -0.01971955242209
O           -3.01069960860607       -0.39332238206069       -0.08396153349187
N           -0.93333719609111       -1.34129546816327       -0.02379688210246
C           -1.62041975497190       -2.62336664081437       -0.09571695889410
H            2.94931243397000        2.03074308216018        0.92346470135847
H            4.85770161912604        0.08660562302623        0.48699728475057
H            2.96353046912040        2.06139907836041       -0.95225444626350
H            4.13314272146004       -1.48563485084967       -0.15560400737835
H           -1.58855290603329        3.00769718169122        0.14527906709261
H           -2.81229479015638        2.17317372139587       -0.82510342618071
H           -2.87259131405513        2.01604293996547        0.92655213850379
H           -1.39005310453877       -3.24400975062788        0.76789885514612
H           -1.37161404461722       -3.15265034135003       -1.01756519641657
H           -2.69228477880729       -2.39447166243011       -0.07857175013925
H            1.20956901924750       -3.03082179941533       -0.08044010359415
