25
 energy: -1.667609422461 xtb: 6.6.1 (8d0f1dd)
C            3.26514350301553        1.21525430925864        0.06152063763464
N            2.35556556606043        0.09755956224283       -0.00477421887238
C            2.71421761639956       -1.27116120119456        0.01556861749465
N            1.48266725965467       -1.96307894068627        0.00736480339035
C            0.44154924764550       -1.08766446756670       -0.02325702153396
C            0.95517768217825        0.19726610109749       -0.02883709490589
C            0.12172985377847        1.34066556735259       -0.00870553565739
O            0.48198012385582        2.51745802793696        0.00950589112580
N           -1.27474357546599        1.01924986693558       -0.01978435701585
C           -2.21841571856856        2.13103190511276       -0.02284806210658
C           -1.82251920530331       -0.22289835992324       -0.05005844875732
O           -3.02425825583303       -0.40692216825931       -0.06686912470291
N           -0.92143827845799       -1.31473494528112       -0.04738133500381
C           -1.49712978503654       -2.63890048261300       -0.07131048543157
H            3.55393694981379        1.39962019390714        1.10901276139289
H            4.20918999250734        0.90680966060228       -0.44996660572755
H            2.73679971497235        2.10097426211344       -0.29166252782039
H            3.70720670939436       -1.67989004261402        0.00411037097955
H           -1.64519210297148        3.05712773439627        0.00309344839578
H           -2.83205800999054        2.10365683041045       -0.92445339851955
H           -2.87809991789149        2.06744765367641        0.84384946148659
H           -1.21432243926938       -3.20500748670509        0.81680832239295
H           -1.19060438004531       -3.17360760437904       -0.97163028197743
H           -2.58261273554006       -2.51907277583480       -0.08097530247673
H            1.31738151462884       -2.95704222618262        0.00969163826791
