  25
        -42.10393364
 C          3.2270063262        1.1507372554        0.0027677750
 N          2.2839689567        0.0637906271       -0.0087955746
 C          2.5703671505       -1.2333865018       -0.0181193274
 N          1.4322570039       -1.9585786778       -0.0171619951
 C          0.3753488362       -1.0824598424       -0.0077963464
 C          0.9168623655        0.1975881452       -0.0036646727
 C          0.0939901587        1.3876305445        0.0058290460
 O          0.4992186046        2.5279935814        0.0173578209
 N         -1.2651786231        1.0609943917       -0.0010086272
 C         -2.2152916586        2.1685386336       -0.0138131123
 C         -1.8429589975       -0.1812960379       -0.0089449334
 O         -3.0262416622       -0.3636470296       -0.0269386388
 N         -0.9553837289       -1.3331026372        0.0069266585
 C         -1.5123624977       -2.5549399948        0.0343793532
 H          3.8611612812        1.0905298144        0.8872611715
 H          3.8584380640        1.1138964709       -0.8848639163
 H          2.6761206095        2.0907292284        0.0159537308
 H          3.5579305442       -1.6513402063       -0.0270989643
 H         -1.6481874782        3.0959978588       -0.0136545040
 H         -2.8408286332        2.1071312277       -0.9031340220
 H         -2.8555544774        2.1167083359        0.8654218913
 H         -0.8963624942       -3.4330991785        0.0472771322
 H         -2.5900619360       -2.6264020522        0.0783150756
 H         -4.4013594322       -3.4218017445        0.5023478641
 H          1.3865397370       -2.9671639582       -0.0257078997
