  25
        -42.14031616
 C          3.2921410319        1.2522380720        0.8600201267
 N          2.4225887829        0.3333484074        0.1676461699
 C          2.8119691918       -0.8124395468       -0.4846029206
 N          1.8848300822       -1.4611611373       -1.0617367045
 C         -0.2909505367       -1.5721181298       -0.1974977126
 C          1.0730730720        0.4980125367        0.0390501676
 C          0.6466470071       -0.7306646144       -0.8466642811
 O          0.3796032379        1.3676015849        0.4792787384
 N         -2.5634681537        2.1225001843       -0.3889880850
 C         -2.6715081408        3.4852075922       -0.0727287661
 C         -2.2960670097        0.9980697380       -0.1743213872
 O         -2.1100740601       -0.1590974308       -0.1551993809
 N         -0.7267716579       -2.4629631924        0.4057132347
 C         -1.5499107560       -3.3349552443        1.0834030614
 H          3.8104484147        0.7411837900        1.6716920212
 H          4.0258924540        1.6677197591        0.1690851794
 H          2.6821201323        2.0563134632        1.2682833749
 H          3.8406815003       -1.1273226485       -0.4994998884
 H         -1.7128394350        3.8683713781        0.2811119246
 H         -2.9667702242        4.0154211839       -0.9780685272
 H         -3.4316234077        3.6354430198        0.6959361872
 H         -1.1016144970       -3.5653297188        2.0515360533
 H         -1.6452252643       -4.2548657236        0.5031151818
 H         -2.5329020130       -2.8810743028        1.2267067733
 H          0.2655862001       -0.3535769117       -1.8045081489
