  72
        -99.34305569
 N         -2.4313885540        2.5503092208        2.6095275901
 C         -1.8555545831        2.0961222684        1.5085741751
 C         -2.8516835433        1.9632098900        0.4068039154
 C         -3.4189641423        0.5434893079        0.3623421125
 C         -4.4629232519        0.2552459429       -0.5168068319
 C         -5.0263909949       -1.0080902668       -0.5725445499
 O         -6.0327860835       -1.3786945511       -1.3902885546
 C         -6.6373602357       -0.4174128849       -2.2222846009
 C         -4.5354254624       -2.0302993215        0.2834671137
 O         -5.1495853910       -3.2242334244        0.1701736252
 C         -4.7904219224       -4.2600804936        1.0551028413
 C         -3.4893488137       -1.7375704193        1.1422201866
 C         -2.9375935541       -0.4636629111        1.1805147155
 C         -2.2906537917        2.3502435485       -0.9746931793
 C         -1.3997055640        1.2656738825       -1.6025156778
 C         -0.0812940667        1.1405972847       -0.9455499239
 N          0.5082213742       -0.0017135375       -0.5998129452
 C          1.8976240709       -0.0080346339       -0.2093962632
 C          2.8215982785       -0.3415204499       -1.3983870184
 C          4.2600810075       -0.2190494553       -0.9825620937
 C          4.9268983122        0.9887249233       -1.1000930653
 C          6.2449103917        1.1150896406       -0.6882821559
 C          6.9209135572        0.0333543552       -0.1441623266
 O          8.1962126594        0.0415859868        0.2908459885
 C          8.9462539698        1.2298133562        0.1907898045
 C          6.2449616248       -1.2109356839       -0.0198196074
 O          6.9782963539       -2.2106659193        0.5126326785
 C          6.4053903252       -3.4892055746        0.6441935102
 C          4.9276654603       -1.3131690392       -0.4364972417
 C         -0.1224823727       -1.2822528039       -0.8099087482
 C         -3.9788941922        2.9161640746        0.9301403953
 C         -3.8463420657        2.7237897883        2.4462963229
 C         -3.7700002808        4.3845828974        0.5458038515
 H         -4.8462293125        1.0333754880       -1.1567644806
 H         -7.0750080742        0.3997403073       -1.6405062522
 H         -7.4287972832       -0.9463590968       -2.7500514442
 H         -5.9280497192       -0.0108986341       -2.9508672271
 H         -4.9421674183       -3.9641962794        2.0970864465
 H         -5.4493003729       -5.0923653775        0.8151814363
 H         -3.7499416215       -4.5690286009        0.9090165690
 H         -3.1054647482       -2.4901857004        1.8109228572
 H         -2.1360580504       -0.2643698481        1.8757005251
 H         -3.1278046899        2.5264161305       -1.6488300596
 H         -1.7246344580        3.2778226930       -0.8908752785
 H         -1.9346136897        0.3178171742       -1.6143597819
 H         -1.2268418443        1.5605184276       -2.6461515520
 H         -0.8095742425        1.8646457352        1.4594371212
 H          0.4862916519        2.0432269095       -0.7829511256
 H          2.0459473458       -0.7435141030        0.5852240150
 H          2.1684347826        0.9757920211        0.1795443390
 H          2.6083128174        0.3571088334       -2.2094112397
 H          2.6143970350       -1.3530065728       -1.7493437028
 H          4.4255490313        1.8434758275       -1.5284790822
 H          6.7400591077        2.0654953356       -0.8012105332
 H          8.4989338140        2.0369310705        0.7792272539
 H          9.0515363158        1.5509965923       -0.8498670552
 H          9.9277056819        0.9902683348        0.5953023129
 H          7.1845770684       -4.1151743096        1.0746670043
 H          5.5412629680       -3.4755387011        1.3164455760
 H          6.1082365584       -3.8980954958       -0.3266129237
 H          4.4078704736       -2.2548244378       -0.3533656516
 H         -0.2242726305       -1.5081237238       -1.8741278645
 H         -1.1139659043       -1.2961233693       -0.3518067543
 H          0.4825841075       -2.0581800649       -0.3474819452
 H         -4.9573520554        2.5896376347        0.5785727066
 H         -4.2167708962        3.5639127114        3.0294984040
 H         -4.3681808097        1.7851801796        2.7885383755
 H         -4.7747274057        0.2213517321        3.3477878924
 H         -2.7886877892        4.7363977759        0.8582142488
 H         -3.8745781577        4.5291317956       -0.5250735256
 H         -4.5252067439        4.9940636383        1.0376411918
 H         -1.9814637565        2.5954828053        3.5112169096
