  25
        -42.02185885
 C          3.2229697999        1.4099637424       -0.0000019013
 N          2.4060470199        0.2250409905       -0.0050920042
 C          2.9758388246       -1.0250494037        0.0060081396
 N          2.3752187033       -2.1283388174        0.0190862556
 C          0.3505394782       -0.9508686994        0.0197070107
 C          1.0419326545        0.2125749416        0.0051366472
 C          0.1134928362        1.3767044919       -0.0082215373
 O          0.5183486578        2.5169966292       -0.0318740146
 N         -1.2310244192        1.0597218862        0.0065464189
 C         -2.1825632988        2.1606724477        0.0053105403
 C         -1.7948128875       -0.2167825155        0.0178637785
 O         -2.9761045257       -0.4178059215        0.0208033905
 N         -0.8632073462       -1.2432199444        0.0244320924
 C         -3.4311517317       -3.2803793708       -0.0704894507
 H          3.7440970440        1.5060618704        0.9554673531
 H          3.9653700752        1.3555187516       -0.7974113032
 H          2.5953846990        2.2877185506       -0.1464265546
 H          4.0593056432       -1.0518145469        0.0022416245
 H         -1.6278358276        3.0970987941        0.0099754858
 H         -2.8141519247        2.1004228359       -0.8816133311
 H         -2.8206780355        2.0940162950        0.8870299980
 H         -3.0345049546       -3.6974544595        0.8362819799
 H         -3.1404444589       -3.6883874814       -1.0197025560
 H         -4.1077735156       -2.4467345104       -0.0280773644
 H          1.3239947005       -2.1470929451        0.0271755229
