72
 energy: -99.333452903490 gnorm: 0.008647746235 xtb: 6.6.1 (8d0f1dd)
N           -1.49585417352102        2.94585657224584        2.23046421027726
C           -1.73536325314290        2.07972777832495        1.36145061610382
C           -2.95527788341256        2.07886980761459        0.48593170787154
C           -3.60433758800791        0.72093906688417        0.50384505520730
C           -5.19503802288511       -2.50026572667206       -1.90213787978087
C           -4.19434638188460       -2.03680818640454       -0.94257647634371
O           -3.13030513401757       -1.50910921806151       -1.27833209927636
C           -5.07939637130583       -2.24909050781124       -3.21024264398406
C           -4.51296553303756       -2.27190747617732        0.48985571936234
O           -5.25528085664135       -3.39069996329285        0.65501442261880
C           -5.68644353767911       -3.76180944042556        1.94460079770461
C           -4.04737861026676       -1.50321796155869        1.51095157856718
C           -3.39237638597729       -0.22584314912391        1.42704136962241
C           -2.48029344187837        2.37520882467176       -0.96133922255616
C           -1.65951064587464        1.24137788969488       -1.59094920448930
C           -0.29050811745356        1.15288867806893       -1.04933998718914
N            0.42958469696945        0.05813935048927       -0.94643984636264
C            1.79939818417509        0.11518236646959       -0.48948407965293
C            2.80182352493060       -0.11295536590332       -1.63607553996281
C            4.20449193767306        0.02393077725512       -1.11304610216293
C            4.86653415429014        1.23951913073279       -1.16888434816157
C            6.14911792283696        1.37315992176163       -0.66016310430876
C            6.79382758881647        0.29171133023748       -0.07659112731759
O            8.03304801016373        0.30480132211505        0.44582599423555
C            8.79158082056114        1.49120375444624        0.38970232833175
C            6.11885960826578       -0.95946352437521       -0.00778225218150
O            6.81559494126507       -1.95417274651593        0.57502491509003
C            6.24211750666990       -3.23633314365464        0.66963497430967
C            4.83773652802637       -1.06877844622281       -0.52514917236735
C           -0.04553184587524       -1.23745137229467       -1.36589467099713
C           -4.03713372485433        3.12211103381235        0.90114090618312
C           -4.52161802516676        2.88419781663545        2.32933788653253
C           -3.57356696016529        4.56886154561173        0.75443611269923
H           -4.33429304237657        0.55752617501321       -0.27636074314164
H           -5.81634319211859       -2.57596467836222       -3.92050825861757
H           -6.02919520243245       -3.04203474371646       -1.49996384601480
H           -4.23313504332779       -1.69904406732142       -3.59514591962939
H           -6.24222371775041       -2.95354374339994        2.42831639591099
H           -6.34061619258890       -4.61928291909580        1.79837368069447
H           -4.84332103329605       -4.05720410071099        2.57612555487588
H           -4.18399422270055       -1.86273596494975        2.52222083899122
H           -2.73439115925315       -0.00759502808141        2.26051922748101
H           -3.36828783777104        2.53236438321131       -1.57451830391702
H           -1.89801678366788        3.29728273964436       -0.96601453220488
H           -2.19694626598754        0.29652224920263       -1.49407593008641
H           -1.57857409847791        1.44860724827448       -2.66617997563738
H           -1.05332233304221        1.24431491849208        1.12497292102025
H            0.19724536680752        2.07818139964356       -0.77245234585332
H            1.94993442286061       -0.65203501111044        0.27581452151288
H            1.99416649792446        1.09064291215695       -0.03879700595240
H            2.62128635051601        0.62687996430188       -2.41749672189794
H            2.65677885601669       -1.10765541543687       -2.05844039598898
H            4.38948607757963        2.09429009667262       -1.62364512491712
H            6.64192935378772        2.32912026182827       -0.72612380994605
H            8.31668936746041        2.29746013463410        0.95704656540250
H            8.95144840120683        1.81519371418892       -0.64291928810144
H            9.74976013881016        1.24657770346084        0.84397091373297
H            6.99140734107660       -3.85588969961870        1.15846618565167
H            5.33136715242903       -3.22487103640341        1.27697465235789
H            6.01920439401300       -3.65040433269470       -0.31851664135415
H            4.32185603376831       -2.01556786256437       -0.48851808128815
H            0.07099664762049       -1.35870646795148       -2.44483916388366
H           -1.10094203152466       -1.37017450591491       -1.12823803833261
H            0.52782237199134       -2.01243770276529       -0.86214387652651
H           -4.88592799843388        2.96301659033336        0.22460903861760
H           -3.72422264432548        3.09832484552188        3.03462340070710
H           -4.85091998861756        1.85708653746032        2.46695780171513
H           -5.35880816855607        3.54260058257981        2.54559175780056
H           -2.67445146387914        4.73469155619207        1.33976212970097
H           -3.38584537901510        4.83348918560569       -0.28245299078786
H           -4.35143299509456        5.22967687125066        1.12841711640965
H           -0.63084131424608        2.86565599439262        2.75602229646870
