25
 energy: -42.142803331878 gnorm: 0.005102014147 xtb: 6.6.1 (8d0f1dd)
C            3.20012324225660        1.04088466328372       -0.33671881445844
N            2.32235215564241        0.04175918979256       -0.27396894653613
C            2.57424882952853       -1.28886570716579       -0.27626417413599
N            1.40322540896544       -1.98204225688529       -0.16552375901355
C            0.38500667160190       -1.08541882084039       -0.09229897210029
C            0.94271419467187        0.18643216832775       -0.16021286406652
C            0.13546628291775        1.37772229212453       -0.12793272264725
O            0.53628737679684        2.51839291146592       -0.19787079694608
N           -1.22699331578258        1.06703650302854       -0.01002268387345
C           -2.16389513479571        2.17723675846065        0.03061783995123
C           -1.80304090099458       -0.18773291188008        0.06559871031454
O           -2.99208511588941       -0.34066753315897        0.16214008922460
N           -0.93917687317027       -1.29988544641137        0.02395623850065
C           -1.50458683958543       -2.63099331288484        0.09580226681822
H            2.52471081947720        1.60015042046653        2.17734879191232
H            4.24041213727774        0.82027924833645       -0.50405636076076
H            2.83200373396863        2.05056611310541       -0.35307487396100
H            3.54382495296471       -1.73488338641106       -0.35183181235461
H           -1.59364333197885        3.10431377203914        0.00909938599520
H           -2.83705622539581        2.12979630186283       -0.82722818828862
H           -2.76661753214591        2.12231119443353        0.93833854113608
H           -1.12014723915975       -3.16267072374924        0.96691639797997
H           -1.28148974647072       -3.19145212442813       -0.81296820667033
H           -2.58510847392752       -2.52550325104214        0.19160343037156
H            1.33389643732692       -2.98852752027032       -0.14027689849137
