25
 energy: 37.284129294014 xtb: 6.6.1 (8d0f1dd)
C            3.51305001012943        2.16833452375223        0.31540546500815
N            2.30175564874055       -0.37875291569243       -0.27699216975550
C            2.46365304088467       -1.62666802732068       -0.04764371539633
N            1.26674886451407       -2.31671440843761        0.04272809831431
C            0.30668466709734       -1.35609398595806       -0.04810312205434
C            0.96553636193506       -0.14554666381472       -0.16476769117745
C            0.21344027388301        1.08146247696814       -0.22844831314613
O            0.65380406242979        2.20155148375161       -0.34687119969163
N           -1.15318241858623        0.88757772502603       -0.07862605874467
C           -1.96567391274738        2.09272029258906       -0.01938321460330
C           -1.81307018288253       -0.30747390963417       -0.03467303271263
O           -3.02125677071252       -0.35060812861339        0.03670117542222
N           -1.04552175063944       -1.47326967457964       -0.06916113217631
C           -1.77136716101175       -2.71567551821091       -0.07611596004165
H            3.80248974825422        2.27724818536880        1.31860772976639
H            4.19260084561290        2.18642144668902       -0.47961010386017
H            2.54143770389051        2.50025473761622        0.07002929903230
H            3.42832860876568       -2.07880090913446       -0.09214037612996
H           -1.28567093586680        2.91075848750572       -0.25110774453782
H           -2.78919078467169        2.02013347008989       -0.70427484593278
H           -2.31056267364137        2.22360090065326        0.99933502017551
H           -1.51448487589000       -3.33358617000938        0.78695963271889
H           -1.62008628931478       -3.26897847028880       -1.00458887174429
H           -2.82333525394962       -2.42024735840078        0.00609116868922
H            1.18815420980701       -3.31728165716549        0.05442329829071
