25
 energy: 37.410215173769 xtb: 6.6.1 (8d0f1dd)
C            3.55785257499134        2.24593061211718        0.32845527152415
N            2.29110469494039       -0.41798152652489       -0.31810302612933
C            2.44727552561950       -1.66056364583795       -0.04424482093893
N            1.24680313156404       -2.34264866458595        0.06439188464909
C            0.29206823314384       -1.37622155757648       -0.04844038007647
C            0.95790214414789       -0.17163714898443       -0.19597931680123
C            0.21020259227281        1.06056653571034       -0.25014313715741
O            0.66762371304357        2.17555157134573       -0.37407214259152
N           -1.15197254381596        0.87752791164887       -0.08384002839945
C           -1.95737222911206        2.08787532558884       -0.02753678810440
C           -1.82027087691602       -0.31270958265571       -0.03156044760587
O           -3.02842935715426       -0.34307368373988        0.03730538707443
N           -1.06218981778433       -1.48197883394763       -0.06219829499446
C           -1.79372258545454       -2.72140494320421       -0.08352059171025
H            3.85104592903210        2.35980051137630        1.33001992331592
H            4.23568878938939        2.28295796460655       -0.46701393106103
H            2.57440832487196        2.54669570843356        0.08189826342349
H            3.41077133242169       -2.10638639326222       -0.08193511807755
H           -1.28373562518190        2.89831549781698       -0.29469352398340
H           -2.80318938367031        2.01076813140658       -0.69115321930983
H           -2.28014826282152        2.23462919285273        0.99474998724176
H           -1.52565174127448       -3.35470075844377        0.76424823233018
H           -1.65541846873700       -3.25882072577460       -1.02423243275551
H           -2.84428247085546       -2.42800930354309        0.01677364812652
H            1.16741568186471       -3.34502768193071        0.07320532934552
