25
 energy: -5.993132696653 xtb: 6.6.1 (8d0f1dd)
C            3.23726169078889        1.22610640249322        0.09454302921920
N            2.33911317273114        0.10127463207831        0.03094588988257
C            2.61449034222175       -1.25896519544662        0.03026202212203
N            1.42149170325222       -1.95631511003648       -0.00342925201448
C            0.40492691973981       -1.07645235271207       -0.01500382797401
C            0.94167846456514        0.20393324345973        0.00503646165888
C            0.13298113213822        1.35977690769833       -0.01207794821499
O            0.51902691854042        2.53160718994449       -0.02139172757226
N           -1.25624357866958        1.03546726508366       -0.03140133514220
C           -2.19643742836858        2.14214013483608       -0.04692313344496
C           -1.81642467082006       -0.20515448495460       -0.04713912785881
O           -3.01736108009994       -0.38470557171228       -0.06831296525693
N           -0.94036179613986       -1.30954787599434       -0.03976004128318
C           -1.49353259493650       -2.64402784992560       -0.06042585693973
H            3.72265659818942        1.30309182033940        1.07288800687295
H            4.01882362125068        1.13479014041497       -0.66603022470537
H            2.65684867275481        2.13310572014164       -0.07834933031215
H            3.58156951203105       -1.69373749069494        0.04084774681341
H           -1.62799064711475        3.06833205657030       -0.03051976337854
H           -2.80085879608544        2.09125030819770       -0.94817285731286
H           -2.83553737442293        2.08715261619472        0.83027451361392
H           -1.19808967017449       -3.20252941141388        0.83086497750783
H           -1.18155667614666       -3.18375196745405       -0.95755710377023
H           -2.57846302863348       -2.53735070556207       -0.07149523323721
H            1.34671934214043       -2.95976821632225       -0.01511574342481
