25
 energy: -0.137860358940 xtb: 6.6.1 (8d0f1dd)
C            3.20402832739222        1.32050064356969        0.11291883739252
N            2.39640125509590        0.06846097446698        0.02574271602582
C            2.64486977573771       -1.31663949471491        0.02848016636346
N            1.43615523103017       -2.01044994937896       -0.01797559707325
C            0.42311670323916       -1.12286496369208       -0.02543891762328
C            0.98386900311454        0.14962628563845       -0.00464721633617
C            0.16635711897398        1.29768813415239       -0.03132384815050
O            0.54980698462743        2.46733851118986       -0.07504123252879
N           -1.23153298381064        0.99908857532964       -0.03345618127019
C           -2.14253185666938        2.12866462268512       -0.04069637200997
C           -1.80624008782000       -0.23124632487226       -0.04395877902395
O           -3.00977934319592       -0.40106501710415       -0.05047626494196
N           -0.93477733875907       -1.34098936981390       -0.04665612338721
C           -1.53712503694667       -2.65516277484860       -0.06030863601407
H            3.69821705186029        1.46764271233549        1.08119328304637
H            4.00323043870087        1.32652559610252       -0.64491669356571
H            2.53904974298006        2.16720563593393       -0.05741671083473
H            3.59185857889876       -1.78932891665035        0.03355062001968
H           -1.54295318521318        3.03357695792603       -0.04610091619362
H           -2.75288868499359        2.08353934355369       -0.92917673336545
H           -2.74370493425334        2.11217969249179        0.85870517273803
H           -1.25961514947833       -3.22511327610202        0.82882149136493
H           -1.26060513109979       -3.20903510259434       -0.95959247699108
H           -2.61949220597566       -2.50637587268840       -0.06271185989292
H            1.31296107617512       -3.01169465775404       -0.03251560739425
