25
 energy: 32.639220506535 xtb: 6.6.1 (8d0f1dd)
C            3.75941831712385        2.81606893491162        0.40823949487859
N            2.27981944653000       -0.57422187705429       -0.30237508066296
C            2.35977119343050       -1.84104969535859       -0.08394389780507
N            1.13194643831975       -2.45091245560819        0.06273377622627
C            0.22614624278202       -1.43973683171271       -0.02852385210667
C            0.94654537124740       -0.27075036378160       -0.20618414478328
C            0.25957807305832        1.00049766106774       -0.18887374863002
O            0.75794237614610        2.10477888112285       -0.17658785454599
N           -1.12800893588069        0.84906092865256       -0.07082891458106
C           -1.92634404594961        2.07062767362963       -0.01744837265690
C           -1.85214997817437       -0.32032336349769       -0.03822953959416
O           -3.06169318990319       -0.31505798686681       -0.01692007763809
N           -1.13230657134275       -1.51064815090570       -0.01981198777967
C           -1.86816370094440       -2.75781060895012       -0.07174313142970
H            4.11394626105462        2.90601294556106        1.41278548849988
H            4.47040823020324        2.72450298432048       -0.38609666481727
H            2.71894756371560        2.73942584533935        0.14284167522329
H            3.28126356075016       -2.36888665839935       -0.15148801319934
H           -1.24863453417231        2.90490349458612       -0.17615709473639
H           -2.67303982210888        2.05019771548982       -0.81330412705088
H           -2.41965430862023        2.15335945219717        0.95462105022784
H           -1.58977076977185       -3.39563208807643        0.76416656325738
H           -1.71709399448626       -3.27939245233081       -1.01899256517590
H           -2.92351013185071       -2.50302023901480       -0.00757138725099
H            0.96899372714649       -3.44216136884088        0.03768002966113
