25
 energy: 38.109486944580 xtb: 6.6.1 (8d0f1dd)
C            3.30604453018497        1.76684618320715        0.20438995707433
N            2.36896579983664       -0.19419259136194       -0.10275041099661
C            2.57360150909458       -1.46980996028649        0.04985157947876
N            1.37980917046457       -2.16477435517954        0.04887504035957
C            0.39056955844286       -1.23981969055391       -0.03344385900374
C            1.00918581880531        0.00291579503524       -0.07700744732956
C            0.21715571151301        1.20081679021579       -0.12766923186190
O            0.59096375141929        2.34966457421951       -0.26066397835479
N           -1.17420804824132        0.94318234463078       -0.05048163858340
C           -2.04832606084189        2.10661819076644       -0.02481383133313
C           -1.78525445468300       -0.27357593099983       -0.03752638298645
O           -2.99156773007089       -0.38381906073352       -0.00411598285718
N           -0.96028681190004       -1.41168280641217       -0.05773696905012
C           -1.63998454136966       -2.68304977504014       -0.05942365440675
H            3.68438007826518        1.86479117673085        1.17533605843245
H            4.00980142624797        1.73786053125385       -0.59760510737867
H            2.39692207956066        2.29082138391336        0.00922981632675
H            3.52972484625266       -1.96670437249132        0.01345120004657
H           -1.39661745286292        2.97231539588168       -0.10264623529416
H           -2.75800359667002        2.04589879637997       -0.82678497152700
H           -2.54023213583322        2.15545732527035        0.93271003852206
H           -1.38255493248008       -3.26844986519669        0.82389034813379
H           -1.42166243040100       -3.25119143053538       -0.96507233490679
H           -2.70681122635102       -2.44667283979478       -0.04117551949765
H            1.29967456090168       -3.16243723092215        0.01261666658775
