25
 energy: -3.705727704774 xtb: 6.6.1 (8d0f1dd)
C            3.22434482652162        1.27568430650586        0.10315193654873
N            2.37747487981287        0.08939964950424        0.03319260007317
C            2.63100645678559       -1.28635227294077        0.02882120432052
N            1.42775013196032       -1.98083969533392       -0.01052719300434
C            0.41432369959692       -1.09714419352466       -0.02046316077436
C            0.96673575412435        0.17793550667275        0.00008232371771
C            0.15064865680782        1.32777678295470       -0.01990617031040
O            0.53625975267496        2.49816702437163       -0.04513000430801
N           -1.24429767732975        1.01668788595655       -0.03173239442412
C           -2.17003786257862        2.13491939473049       -0.04387360484447
C           -1.81383328333724       -0.21837740386937       -0.04569591940821
O           -3.01676507496335       -0.39234447222728       -0.06159241596337
N           -0.93846900678945       -1.32337815498475       -0.04303768081080
C           -1.51563708729399       -2.64813805646168       -0.06084240108863
H            3.71693702905362        1.38772474439988        1.07624588068934
H            4.01529718037045        1.23240368264209       -0.65729221895048
H            2.59996761138893        2.15343639512057       -0.06766208424563
H            3.58723871682023       -1.74295574958938        0.04022280718592
H           -1.58640888185751        3.05047810346754       -0.03705841429762
H           -2.77593849599854        2.09057205380149       -0.94036926003368
H           -2.79174050603752        2.10077909799575        0.84382329092968
H           -1.22985811627812       -3.21289404975643        0.82938184604602
H           -1.22087043891550       -3.19464492492733       -0.95921096495403
H           -2.59952718984769       -2.51976756458102       -0.06849242158574
H            1.32545718182017       -2.98253345557576       -0.01955406956563
