25
 energy: 29.816486587518 xtb: 6.6.1 (8d0f1dd)
C            3.88704937050652        2.98046450615746        0.25141708892530
N            2.26191210860162       -0.60407854588604       -0.04623181820461
C            2.33545773944377       -1.89225277680100       -0.06230379502107
N            1.09621210327460       -2.49574396056256       -0.08138547210255
C            0.19426331468060       -1.47973432856831       -0.07413422626727
C            0.92823619754992       -0.30279205520204       -0.05381785466976
C            0.27070518678762        0.97957527070368       -0.04270777523275
O            0.78152339641523        2.07385675336794       -0.03822736032380
N           -1.13166228655765        0.83707284845146       -0.03826623924689
C           -1.92599955977492        2.05816689624616       -0.01878262127756
C           -1.86704085499309       -0.32648827802309       -0.04460195580995
O           -3.07748461477536       -0.32218806184756       -0.02611372979224
N           -1.16138477628651       -1.52928762652861       -0.07651938195807
C           -1.88893298534692       -2.77989495621396       -0.09282298053448
H            4.23592477726587        3.17333645270383        1.24306626847899
H            4.58380803478753        2.96483149121355       -0.55876111974358
H            2.85336040612769        2.77584613799486        0.07611146462069
H            3.24813275394330       -2.45261317219078       -0.05902852904998
H           -1.24282915768294        2.90289979963970       -0.07566024872748
H           -2.61196535687053        2.06503633919606       -0.86509432932921
H           -2.50981737920600        2.10769399333075        0.90021389839637
H           -1.63264035949758       -3.38469603061606        0.77902577803963
H           -1.67419850910271       -3.33791343140410       -1.00629894548174
H           -2.95065843037020       -2.53720453976887       -0.06209478354385
H            0.91024318605346       -3.48486393664728       -0.09994741994823
