25
 energy: 37.133079122934 xtb: 6.6.1 (8d0f1dd)
C            3.47189686466143        2.08677149323679        0.30050156598884
N            2.31540906276267       -0.34545465649066       -0.22388019299671
C            2.48624622951527       -1.59765097572063       -0.05620262622541
N            1.29060230352985       -2.29064090883286        0.02587402041649
C            0.32470985010685       -1.33612965056815       -0.04882251967797
C            0.97645620159001       -0.11879702939029       -0.14092158312573
C            0.21913299428347        1.10340008601999       -0.22172332412069
O            0.64847052501972        2.22610878458253       -0.35668997475776
N           -1.15189360102601        0.89899348024074       -0.07270163944891
C           -1.97760745427731        2.09650084443005       -0.01494607640661
C           -1.80446070043218       -0.30084271174678       -0.03135278652599
O           -3.01288291443102       -0.35386251979383        0.04878091986290
N           -1.02747963614923       -1.46328471237613       -0.07210067531048
C           -1.74755130393157       -2.70961769377286       -0.06871971613190
H            3.76367135772273        2.19355576228171        1.30078564022053
H            4.14654207849557        2.09565935605963       -0.49999021844280
H            2.51412026250868        2.45363588256531        0.05828185379764
H            3.45517323608530       -2.05376290075693       -0.11744097207235
H           -1.29389718749452        2.92272781749446       -0.21338473885502
H           -2.78693828597472        2.02272109640778       -0.71863491453439
H           -2.33527866318208        2.21285518528662        1.00302773903662
H           -1.49815535129293       -3.31360970255415        0.80580606065691
H           -1.58324926337354       -3.27551797405778       -0.98637536210507
H           -2.80094637078080       -2.41628067581843       -0.00648383987571
H            1.20911438311082       -3.28900905386872        0.04302406332825
