25
 energy: 37.882831142442 xtb: 6.6.1 (8d0f1dd)
C            3.37337619899511        1.93437041280829        0.25674868691757
N            2.33764660484378       -0.28185715297126       -0.10887897141580
C            2.52633503276173       -1.54011668455033       -0.00331781053028
N            1.33341377966876       -2.23409073459755        0.03217254636506
C            0.35763455456347       -1.29089615063998       -0.04366953611749
C            0.99224427499910       -0.05990963762990       -0.10507537151351
C            0.22226768428337        1.15706161561557       -0.18462384877381
O            0.62480381259369        2.28656354996637       -0.35317718815570
N           -1.15928172509872        0.92185229114028       -0.06148752642503
C           -2.01236756367023        2.10073455080548       -0.01502573559959
C           -1.78894257636564       -0.28951601975668       -0.03289707289995
O           -2.99738559970262       -0.37214761868192        0.02726485402035
N           -0.99204467574812       -1.43948335827213       -0.06897102877577
C           -1.69523484206196       -2.69648566216353       -0.06210219086505
H            3.69720656704861        2.02941956606881        1.24322557961399
H            4.03523354582191        1.92566710804263       -0.56118875871408
H            2.43772572866931        2.38674450567015        0.05048931809876
H            3.49772332045878       -2.00324824797808       -0.04444078073537
H           -1.33471778781360        2.94370476209197       -0.14509290145968
H           -2.78227352992780        2.03207003200501       -0.76101778440932
H           -2.43902931135262        2.18237795953245        0.97629252870856
H           -1.44343376780168       -3.28793320908518        0.81879230819520
H           -1.50307880284295       -3.26878509593166       -0.97044636429422
H           -2.75345788952758       -2.42161321300162       -0.02960892142385
H            1.26029165543293       -3.23174904301381        0.04498766189603
