72
 energy: -99.280629182708 gnorm: 0.003070282677 xtb: 6.6.1 (8d0f1dd)
N           -1.94860456262778        2.85906193136412        2.29752695086799
C           -1.86854832308791        2.15708449616640        1.26595694372077
C           -2.99225523893369        1.93803628440552        0.29110628951158
C           -3.45268491108765        0.48970349961239        0.36358916764237
C           -4.34823121414308       -0.00043273441959       -0.58958193903416
C           -4.80822021961211       -1.30504143393815       -0.54740542345906
O           -5.68069660604907       -1.85300134550450       -1.42319188811075
C           -6.27268055590912       -1.03422609818769       -2.40313779552645
C           -4.35390340264793       -2.17407313371965        0.47847297171199
O           -4.84615983773555       -3.43207841586159        0.43586241720748
C           -4.50892767864200       -4.32984829049863        1.46620060920425
C           -3.46886997674331       -1.68221423423755        1.42283667947296
C           -3.02677380711679       -0.36546851877645        1.36636674607051
C           -2.40230891111330        2.23518128287831       -1.11245401324705
C           -1.45103545746061        1.15099619268451       -1.65033347362687
C           -0.12291208663984        1.14475058578932       -0.99633289856036
N            0.53952650757846        0.05319303937042       -0.59350458107390
C            1.94592131691736        0.12788142750848       -0.28863367019341
C            2.81497496720834       -0.37744906600990       -1.46087981365548
C            4.26681063379328       -0.15557326220130       -1.15182583325524
C            4.89204245011252        1.02531541491430       -1.53608443623673
C            6.21368822406934        1.25791693960143       -1.19845054898069
C            6.90761824378701        0.30043856265658       -0.48219751272574
O            8.26148817613233        0.50312494884012       -0.07495598391263
C            8.37154087267833        1.55555039004430        0.99243379685465
C            6.30850337558194       -0.90525489352715       -0.08479728229807
O            7.09734784139347       -1.75774744610697        0.60050182239111
C            6.56897647988493       -2.99909593845399        1.01454519066785
C            4.97595072328607       -1.11331241208389       -0.43094586123926
C           -0.07204692041709       -1.25302053047809       -0.58470729556068
C           -4.22372002674766        2.85538957083517        0.54968359166059
C           -4.89960211644801        2.52480823549050        1.87837457217110
C           -3.88472400820160        4.34285639836616        0.50017419105213
H           -4.70068647547885        0.65513748601311       -1.36832287497612
H           -6.81425940938564       -0.19674298039093       -1.95274289373932
H           -6.97611114295728       -1.67443831725375       -2.93197277120097
H           -5.53087970081905       -0.65206705102875       -3.11239748728885
H           -4.82377162959189       -3.95471750710993        2.44465720361987
H           -5.04824493844562       -5.24801145781266        1.24160760341147
H           -3.43381980528423       -4.53721113176464        1.48346505965417
H           -3.12187098900023       -2.31320082963391        2.22502760319512
H           -2.36194936299001       -0.01019141115922        2.13849268584066
H           -3.22343953652083        2.34533773275197       -1.82001312962071
H           -1.86989615496296        3.18643795300971       -1.07533996145422
H           -1.93374703206320        0.17735509273841       -1.58904308303356
H           -1.29134077410898        1.37577096144772       -2.71381556056210
H           -0.94007147082036        1.65269247920114        0.93433430150265
H            0.43315865029305        2.06982440615487       -0.98677013265970
H            2.15563361004200       -0.47039156425926        0.60263369918881
H            2.21291228449049        1.16477518859676       -0.07390507964965
H            2.53601643680809        0.17147939155053       -2.36153050606668
H            2.61986506980570       -1.43750917578153       -1.62612371506501
H            4.34941415087779        1.76430941071075       -2.10350454687695
H            6.70310732995006        2.17746024016111       -1.47846350226065
H            7.75675830154022        1.24789213367524        1.82826748149080
H            8.79295644048499        0.84164464372449       -0.81791862765744
H            9.42361189286772        1.64172943912586        1.23122175887974
H            7.38465694741659       -3.50418098788093        1.52771863631915
H            5.73315325273692       -2.86564913942063        1.70681506340990
H            6.25046013627222       -3.60077274297162        0.15890594105739
H            4.48300005088222       -2.02906698712622       -0.14686175682098
H           -0.18430245147082       -1.65117758016255       -1.59652606398764
H           -1.05640903586811       -1.20749864883821       -0.11415896821298
H            0.55196210912826       -1.93454796917328       -0.01080242567846
H           -4.94033151038321        2.64558450119699       -0.25278652053287
H           -4.22467066905556        2.73638508004284        2.70108623288749
H           -5.19160546388510        1.47834396418545        1.92046257364818
H           -5.79208479384126        3.13425525855671        1.99447983386836
H           -3.15136983090584        4.58742708584706        1.26215397134961
H           -3.50423810790898        4.64033628358876       -0.47350185736847
H           -4.78438837915161        4.92030143952463        0.69639338666623
H           -1.11214635275273        2.95358338594220        2.86583158181672
