  72
        -99.32778963
 N         -2.1023737356        2.8159459275        2.7849701611
 C         -1.9671254855        2.1438611738        1.7410392574
 C         -2.9941047028        2.0621773964        0.6438690148
 C         -3.4917796844        0.6309632943        0.5245034245
 C         -4.3042043472        0.2643354616       -0.5506221118
 C         -4.7949164578       -1.0245502715       -0.6811061587
 O         -5.5940678936       -1.4582875872       -1.6774322345
 C         -6.0796132351       -0.5354711562       -2.6241845120
 C         -4.4533267326       -2.0060508058        0.2897621064
 O         -4.9581233639       -3.2360859462        0.0722648255
 C         -4.7175478527       -4.2544838117        1.0156917712
 C         -3.6542746908       -1.6331890004        1.3591736328
 C         -3.1858572919       -0.3309733276        1.4759730041
 C         -2.2649500722        2.4915665931       -0.6583253493
 C         -1.3281787005        1.4340410935       -1.2698405735
 C         -0.0818253003        1.2272706911       -0.4890479356
 N          0.4728114162        0.0534666959       -0.2023144143
 C          1.6204381065       -0.0648483984        0.4526873469
 C          3.4387772123       -0.8602513069       -2.5580238815
 C          4.5451894806       -0.5795456097       -1.7931993687
 C          5.2227616046        0.6680658747       -1.8969863646
 C          6.3383305128        0.9380382793       -1.1477395528
 C          6.8472818355       -0.0063223756       -0.2506630870
 O          7.9295065886        0.1506742563        0.5196873345
 C          8.6777312876        1.3438274792        0.4457238964
 C          6.1858611343       -1.2710100275       -0.1208868374
 O          6.7602415344       -2.1096073110        0.7655767193
 C          6.2462271269       -3.4134372687        0.9032533013
 C          5.0687967956       -1.5343664616       -0.8707188371
 C         -0.2053881335       -1.1681066569       -0.6004221560
 C         -4.2241147433        2.9873222206        0.8852128068
 C         -5.0055520983        2.5686194841        2.1282139086
 C         -3.8554996639        4.4651448789        0.9824975995
 H         -4.5660253172        1.0031240003       -1.2899330046
 H         -6.6401094000        0.2726209444       -2.1445688131
 H         -6.7476909492       -1.1033092925       -3.2690726647
 H         -5.2693032811       -0.1133017351       -3.2276319806
 H         -5.1205683275       -3.9936847285        1.9986919750
 H         -5.2348979225       -5.1325320133        0.6346211214
 H         -3.6489367454       -4.4744334696        1.1056197768
 H         -3.3993471866       -2.3488399568        2.1238928189
 H         -2.5933151514       -0.0725189324        2.3398687465
 H         -3.0159697125        2.7450168439       -1.4062928426
 H         -1.6897878184        3.3948156884       -0.4516235045
 H         -1.8775961144        0.5054670241       -1.4104242399
 H         -1.0500668448        1.8067984035       -2.2645540173
 H         -1.0563553508        1.5712487835        1.4943818369
 H          0.4926432002        2.1029266512       -0.2280334195
 H          2.0306393134       -1.0309323008        0.6564268925
 H          2.1377894902        0.8147649138        0.7836932205
 H          3.0610850033       -0.1570806835       -3.2769212350
 H          2.9440620007       -1.8123767880       -2.4915076072
 H          4.8481383254        1.4033872766       -2.5913725770
 H          6.8337371338        1.8893503208       -1.2594358039
 H          8.0778793289        2.2114588629        0.7354624441
 H          9.0856159346        1.4979174489       -0.5568995434
 H          9.4953018865        1.2194245724        1.1527776951
 H          6.8996875982       -3.9122742653        1.6168608494
 H          5.2238187631       -3.4013991574        1.2932000886
 H          6.2682818055       -3.9529230877       -0.0488551607
 H          4.5649540929       -2.4845180776       -0.7960778203
 H         -0.2859870579       -1.2175461623       -1.6860414766
 H         -1.2053862451       -1.2060443628       -0.1653719408
 H          0.3591681871       -2.0287881937       -0.2517057427
 H         -4.8819507471        2.8601158083        0.0174969204
 H         -4.4019721349        2.7241205999        3.0168218867
 H         -5.2962940880        1.5220570053        2.0770712354
 H         -5.9065748443        3.1705416248        2.2124694024
 H         -3.1691614992        4.6280684656        1.8078184833
 H         -3.4063167055        4.8333663562        0.0641239859
 H         -4.7553495998        5.0455416604        1.1695907335
 H         -1.3361592589        2.8258503906        3.4503700402
