  72
        -99.31050148
 N         -1.4482396865        2.4098602190        2.6223802805
 C         -1.3385367190        1.7369315314        1.5765172921
 C         -2.3727189485        1.7349161111        0.4719571561
 C         -3.0979968364        0.3980028388        0.4735594584
 C         -4.0907269733        0.1539771499       -0.4792094195
 C         -4.7894781145       -1.0426041163       -0.5110406520
 O         -5.7500872010       -1.3587659423       -1.3989464947
 C         -6.1183533869       -0.4253197001       -2.3867288809
 C         -4.5002254521       -2.0497652142        0.4537731832
 O         -5.2191457117       -3.1790776995        0.3413414154
 C         -5.0298578899       -4.2185102245        1.2741076383
 C         -3.5289935907       -1.7908800334        1.4104266975
 C         -2.8418135093       -0.5855977288        1.4203801233
 C         -1.6107705960        1.9749547536       -0.8359857450
 C         -1.6803537321        1.1337349301       -2.0769275590
 C         -0.3915247517        1.1834689069       -1.3180710301
 N          0.1431753431        0.0667209724       -0.6215634413
 C          1.5279512657        0.1513413309       -0.2711569741
 C          2.5197521972        0.0613448805       -1.4498008272
 C          3.9345155485        0.0794230731       -0.9569300343
 C          4.6575010192        1.2650912302       -0.9063144145
 C          5.9684324163        1.2809587037       -0.4607334182
 C          6.5881651338        0.1088187293       -0.0434929422
 O          7.8537300802       -0.0018725609        0.3869207762
 C          8.6864090786        1.1355761267        0.4029524779
 C          5.8459608483       -1.1092873687       -0.0644666525
 O          6.5161466484       -2.1900384965        0.3702728710
 C          5.8772274493       -3.4449444282        0.3893625356
 C          4.5364509115       -1.0990242533       -0.5216323773
 C         -0.3805141138       -1.2519471337       -0.8828208046
 C         -3.4380143897        2.8677417401        0.6577310538
 C         -4.3563617762        2.5762012553        1.8428857978
 C         -2.8453852949        4.2638174107        0.8329745066
 H         -4.3304459906        0.9222774717       -1.1956977517
 H         -6.5338613882        0.4843155244       -1.9435625234
 H         -6.8844503685       -0.9178070523       -2.9819985987
 H         -5.2722938399       -0.1660290807       -3.0304539608
 H         -5.2569931134       -3.8894975279        2.2925271813
 H         -5.7281365032       -5.0010766341        0.9833855621
 H         -4.0090047017       -4.6104314721        1.2352818512
 H         -3.3017913332       -2.5270902999        2.1639901596
 H         -2.1064750556       -0.4212248156        2.1913169440
 H         -1.4996582206        3.0340029658       -1.0257695990
 H          1.5980180220        2.4324155629        0.9751645094
 H         -2.2431480380        0.2153757963       -2.0575075804
 H         -1.7255565508        1.6409247125       -3.0301642038
 H         -0.4779656105        1.0961686422        1.3494057273
 H          0.3856544936        1.8194035594       -1.7297315354
 H          1.7552283435       -0.6389491137        0.4495093522
 H          1.6819537280        1.1489969968        0.2565890193
 H          2.3573735400        0.8937558467       -2.1352843374
 H          2.3259056174       -0.8708991189       -1.9866389037
 H          4.1990333487        2.1877107881       -1.2266591208
 H          6.5070778811        2.2143043327       -0.4442436706
 H          8.3072274356        1.8994426101        1.0879661396
 H          8.7968433470        1.5633809732       -0.5977203048
 H          9.6542844910        0.7831989437        0.7544739572
 H          6.6165695881       -4.1428493503        0.7777623364
 H          5.0035917694       -3.4388676783        1.0485645538
 H          5.5770534556       -3.7573958057       -0.6154528127
 H          3.9732205733       -2.0187067177       -0.5584025777
 H         -0.2058461822       -1.5633142657       -1.9201000659
 H         -1.4502342438       -1.2828678487       -0.6821651500
 H          0.1068606202       -1.9630097403       -0.2189019229
 H         -4.0415245437        2.8733306883       -0.2571401999
 H         -3.7771607409        2.5640551375        2.7616451042
 H         -4.8657624176        1.6221299536        1.7352785443
 H         -5.1083722195        3.3572183882        1.9212566730
 H         -2.2408050001        4.3047575956        1.7344845199
 H         -2.2362997435        4.5744436721       -0.0122934848
 H         -3.6562459169        4.9809027678        0.9328425641
 H         -0.6971036517        2.3716658493        3.3028171153
