  25
        -42.11863117
 C          3.0418637224        0.9217686816        0.1213685283
 N          2.4760630814       -0.4231046067        0.0143978485
 C          3.3910239625       -1.4789286981       -0.0373455098
 N          3.1772288781       -2.7041167532       -0.0941459307
 C         -0.0370107361       -0.1194134817       -0.0065617238
 C          1.1866314735       -0.6348113944       -0.0048855481
 C         -0.4334396870        1.3524027604       -0.0364094477
 O          0.3038810735        2.3002475611       -0.0583591426
 N         -1.7910655241        1.3362383095       -0.0122872696
 C         -2.6485490609        2.4982837816       -0.0097806939
 C         -2.3098764819        0.0411421620        0.0165304137
 O         -3.4628731027       -0.2695412325        0.0361729858
 N         -1.2192985992       -0.8174410288        0.0200163192
 C         -1.3543558389       -2.2456483252        0.0370569933
 H          3.6008221758        1.0114253035        1.0536582120
 H          3.7124348337        1.0941797639       -0.7214586783
 H          2.2519274679        1.6718586455        0.1029021225
 H          4.4245535090       -1.1426283947       -0.0152300345
 H         -2.0315890401        3.3945119515       -0.0076527797
 H         -3.2873156185        2.4829541311       -0.8945152430
 H         -3.2851924059        2.4762812577        0.8764099240
 H         -0.8890487683       -2.6645609597        0.9312989843
 H         -0.8884790683       -2.6823335689       -0.8485611925
 H         -2.4189772776       -2.4785759351        0.0395095358
 H          2.2623173326       -3.1391138245       -0.1163573813
