  25
        -42.10600573
 C          3.2220253406        1.1195343536       -0.0037549638
 N          2.2662605453        0.0449739164       -0.0050279624
 C          2.5298584079       -1.2588661820       -0.0021301497
 N          1.3725199961       -1.9614811858        0.0042724315
 C          0.3395901151       -1.0730479700        0.0056727478
 C          0.8961718381        0.1997604757        0.0013113462
 C          0.0987857870        1.3888267054       -0.0040553308
 O          0.4843523429        2.5369652642       -0.0182829520
 N         -1.3040525585        1.0777616716        0.0066299118
 C         -2.1579901764        2.1098234062        0.0271919967
 C         -1.8753024574       -0.2325783057       -0.0090584663
 O         -3.0645653760       -0.3881171122       -0.0267068544
 N         -0.9894988158       -1.3044946938       -0.0001100570
 C         -1.5241296200       -2.6545042955        0.0045084045
 H          3.7097588627        1.1929065984        0.9694471370
 H          3.9815427065        0.9505331639       -0.7658462779
 H          2.6987407851        2.0536771763       -0.2034950930
 H          3.5085303390       -1.6951278376       -0.0042234119
 H         -1.1761562573        4.8505057664        0.2881043826
 H         -1.7498324750        3.1200686398        0.0644562916
 H         -3.2127415889        1.9094291081        0.0275022070
 H         -1.2268820560       -3.1772609708        0.9138318825
 H         -1.1836493164       -3.2015147331       -0.8745911148
 H         -2.6104274485       -2.5813822214       -0.0224848100
 H          1.3041331583       -2.9690636550        0.0067593866
