  25
        -42.15252235
 C          2.9847643588        1.5580588121        0.1170608835
 N          2.3244411941        0.4964646429       -0.0551692338
 C          2.5683377385       -2.2533630826       -0.1424778991
 N          1.2703105676       -2.1368221179        0.0453636405
 C          0.4796721950       -1.0108257976        0.0152563224
 C          0.9884121018        0.2885936658       -0.0037863878
 C          0.0638797754        1.4356073666       -0.0048464922
 O          0.4475102116        2.5845667276        0.0107962617
 N         -1.2780436398        1.1115324460       -0.0157639325
 C         -2.2521318155        2.1938907852       -0.0377345745
 C         -1.7984071715       -0.1607124536        0.0032789709
 O         -2.9806115932       -0.3713476075       -0.0023652015
 N         -0.8722236150       -1.2184372755        0.0304182749
 C         -1.4432108132       -2.5552311407        0.0268089733
 H          3.1579831559       -1.3850393912       -0.3755600651
 H          4.0480484943        1.5272861261       -0.0734197616
 H          2.5486174367        2.5039264851        0.4436993660
 H          3.0131489864       -3.2285731509       -0.0605140281
 H         -1.7122215130        3.1377196399       -0.0479851656
 H         -2.8783625978        2.1055284748       -0.9254450744
 H         -2.8925781691        2.1333119124        0.8422105972
 H         -1.2397000166       -3.0789517969        0.9635036812
 H         -1.0960581924       -3.1315484605       -0.8320605992
 H         -2.5249700274       -2.4355113904       -0.0582057991
 H          0.7495426527       -2.9932859364        0.2376321162
