72
 energy: -99.324145243818 gnorm: 0.002594724150 xtb: 6.6.1 (8d0f1dd)
N           -1.57941007674158        2.60402108279409        2.21453322422804
C           -2.29479646858540        2.29534330134020        1.37674786117954
C           -3.20169152176925        1.97247708126251        0.29389351162081
C           -3.67304940371517        0.53297263466424        0.39639606986192
C           -4.53300504264884        0.02343828487541       -0.57570822985192
C           -4.97555112999029       -1.28962948159312       -0.52725762128525
O           -5.81379941497147       -1.86198230231684       -1.40993577720277
C           -6.37838752366596       -1.08341471860396       -2.43968964284590
C           -4.52973046557969       -2.14153084880588        0.52443626641277
O           -4.99104233059701       -3.40233796674733        0.48049946945765
C           -4.62097531825254       -4.30919801854575        1.49387673722515
C           -3.68006112245003       -1.62010612063416        1.49031929853392
C           -3.26277490116107       -0.29935461766668        1.42958209665292
C           -2.43483108667122        2.20247666194110       -1.03755401046641
C           -1.48841711661511        1.06746290692019       -1.43189258526411
C           -0.33926989965147        0.88266850381881       -0.43619330669928
N            0.61464973605295       -0.10096974167406       -0.88373174775541
C            1.97021440705724        0.02941807942810       -0.41280046370844
C            2.98033100519674       -0.33165676899516       -1.52160513080107
C            4.38468565791404       -0.12788560369458       -1.03799837093146
C            5.02960769404199        1.08934137596300       -1.22468900423316
C            6.31844636325391        1.29271296033518       -0.76218798839106
C            6.99724370049095        0.28016487466380       -0.09369490712447
O            8.24252040703213        0.35973890714438        0.39644150908419
C            8.98142999589278        1.54895193609633        0.22988397795826
C            6.34416764842110       -0.97283812061351        0.10691239486644
O            7.07536961046342       -1.89566758516265        0.75289352244296
C            6.53346517782884       -3.17371246842906        0.99189818667772
C            5.05086039293722       -1.14851434363561       -0.36502250437821
C            0.10112364305451       -1.44639127974695       -0.94732383244511
C           -4.42409639552154        2.93726332259665        0.41428428788922
C           -5.17250553657800        2.67843879692948        1.72104290852747
C           -4.01068490806481        4.40461151178919        0.33219851611097
H           -4.86140079598267        0.66032252038053       -1.38075334939248
H           -6.94746848190249       -0.24009988090044       -2.03712139017014
H           -7.05263045217060       -1.75060068139650       -2.97314091345659
H           -5.61382830230679       -0.71504567154432       -3.13080911023398
H           -4.95740298751910       -3.96925563594586        2.47762636279081
H           -5.11862818169288       -5.24442431058965        1.24523048256886
H           -3.53836446445600       -4.46779985435743        1.51236982600498
H           -3.34072287682924       -2.23605971055509        2.30706643018787
H           -2.61911182875783        0.07937007028692        2.20897248788450
H           -3.16725273185539        2.33341079173928       -1.83607944391637
H           -1.86343028533844        3.12873762088840       -0.95497252906554
H           -2.05172758453419        0.13823112611745       -1.52250757394530
H           -1.06191366653581        1.30009141956333       -2.40955234624120
H           -0.75392019916609        0.59068593371347        0.54087604354223
H            0.17425834238380        1.83721775417530       -0.30972819826389
H            2.15458168866936       -0.61210794577583        0.46174493832202
H            2.14559559186861        1.06325135005370       -0.11017800052291
H            2.78351085685607        0.30542289877513       -2.38403220022807
H            2.83756666712861       -1.36963682865579       -1.82337633087111
H            4.52417585714406        1.88748106548737       -1.74603838173225
H            6.79320062932774        2.24574005097485       -0.92902319822017
H            8.49088525775167        2.39619471704497        0.71784771207431
H            9.13728699245404        1.77583067573555       -0.82882762999787
H            9.94260445038590        1.36445863454050        0.70594146247847
H            7.31907959282519       -3.73424639120726        1.49497735314197
H            5.65436834872227       -3.11934759552776        1.64118097710294
H            6.26970817461581       -3.67844050681120        0.05773826447439
H            4.55045007527828       -2.09338133623589       -0.22132660136475
H           -0.52205001625735       -1.56944250012689       -1.83376552494548
H           -0.50630572234832       -1.68548332479800       -0.06475942787903
H            0.91948885028156       -2.15834018245182       -1.00830706061193
H           -5.09694244345737        2.71866023731967       -0.42158356992530
H           -4.52805272256566        2.87468844147533        2.57569481959353
H           -5.52030815814426        1.64897770616628        1.77952807196804
H           -6.03628665651128        3.33496129705714        1.78902215622867
H           -3.28279281650113        4.64488401607728        1.10425027799304
H           -3.58752668448416        4.65138894071309       -0.63812146269100
H           -4.88399775838289        5.03444671501434        0.48413523612594
H           -0.09821573740289        3.69708566038374        4.59251146844905
