  25
        -42.17788541
 C          3.3242887660        0.6384775852        0.0058558375
 N          2.2201094256       -0.2820190967       -0.0476768340
 C          2.2636957989       -1.5954951885       -0.2859588182
 N          1.0120890183       -2.1080166531       -0.2148346330
 C          0.1583018334       -1.0790254404        0.0789790151
 C          0.9224346096        0.0579975391        0.1895365880
 C          0.3165672881        1.4029257239        0.5344754700
 O          0.9252128327        2.4426700741        0.1370710959
 N         -1.1348084097        1.2624527071       -0.0796413132
 C         -1.6647193116        2.3583387713       -0.5667057828
 C         -1.9125489162        0.0827227398       -0.0013331936
 O         -3.1112201352        0.1049882672       -0.1063508865
 N         -1.2016868352       -1.1038065577        0.1657599175
 C         -1.9318405790       -2.3548385560        0.2119683369
 H          3.8374701791        0.5558540043        0.9681615239
 H          4.0349645670        0.4306856950       -0.7930276108
 H          2.9282122059        1.6524669973       -0.0999310456
 H          3.1471029587       -2.1592047423       -0.5110093449
 H         -1.0458426498        3.2406906170       -0.5721322379
 H         -2.6748727028        2.3403503305       -0.9424376529
 H          0.0620000609        1.3940749330        1.6261974342
 H         -1.5483905135       -2.9803852241        1.0174524439
 H         -1.8637574381       -2.8853978387       -0.7401658513
 H         -2.9786846889       -2.1223454767        0.4026660078
 H          0.7637438070       -3.0727501274       -0.3800042214
