72
 energy: -99.339667056789 gnorm: 0.004116530566 xtb: 6.6.1 (8d0f1dd)
N            0.10635418270542        4.92659276244540        1.38656746654296
C           -0.18688121957951        3.86532917415205        1.02654367875895
C           -3.40878578515790        1.64129494243920        0.14611709482082
C           -4.03259881994704        0.37902458987864        0.09361569533136
C           -4.05452569083739       -0.39844194663256       -1.09402219837169
C           -4.59340125958075       -1.66359015813652       -1.12467380249446
O           -4.69052703183546       -2.44988614339837       -2.21809324915531
C           -4.30399636913711       -1.93731257126979       -3.47101782780657
C           -5.10545115113144       -2.24348890189626        0.07585063339955
O           -5.54968369981750       -3.50304937076776       -0.03349527507760
C           -6.08633682452543       -4.15176728265431        1.09782139862334
C           -5.11887765607323       -1.47211748836179        1.23690963568401
C           -4.62377812468380       -0.18820498011453        1.24424914685936
C           -2.28549085880487        1.97169848763746       -0.77848364017540
C           -1.20448753590436        0.88157381116697       -0.85575593225380
C           -0.67410360974199        0.53919229522823        0.54670415872500
N            0.26278220602559       -0.54598254915551        0.60399787805588
C            1.66700173286162       -0.27468142601198        0.57641379746301
C            2.28412718864719       -0.11864543666825       -0.83719389363304
C            3.75912428534483        0.10996305540448       -0.72887379442539
C            4.30582752620964        1.37296843516535       -0.90424690367957
C            5.67015692072416        1.58117861753336       -0.77791135086405
C            6.51921881326513        0.53035031686903       -0.45658294679977
O            7.85369194207219        0.61725847282004       -0.30220855139371
C            8.48879088373440        1.85896478253123       -0.50107900578989
C            5.96782039041059       -0.76831529471082       -0.26396600501031
O            6.85847228527957       -1.72896118645476        0.05041355133035
C            6.40328160273801       -3.04141427608955        0.28010445558280
C            4.60212178293586       -0.95285133688053       -0.40785288027458
C           -0.17314792086252       -1.81943249355724        0.10862160216415
C           -3.84667962104407        2.66077604596199        1.15412671737767
C           -2.89252961025323        2.72487335384079        2.35610297385978
C           -3.98273728405175        4.05495135317662        0.52774552054436
H           -3.70982554409308        0.05412631278756       -2.00857519619124
H           -4.87630769227182       -1.04185305347947       -3.73194904803721
H           -4.52270266239227       -2.72542789401480       -4.18876447209292
H           -3.23333808860857       -1.70910252934352       -3.50063803010522
H           -6.97850837037693       -3.63792541570154        1.46873086932487
H           -6.35828302376019       -5.15032587110858        0.76074558421315
H           -5.34786948485969       -4.22784250025911        1.90175717687692
H           -5.52223996567833       -1.88080899834529        2.14928245886554
H           -4.63496612318504        0.36018382201516        2.17110569142967
H           -2.67135408617188        2.14461766196744       -1.78918160300639
H           -1.80910272071320        2.89439447454221       -0.45037319924106
H           -1.60353775530701       -0.02370501855778       -1.31020945159357
H           -0.39074580922952        1.24902396965284       -1.48175160608057
H           -1.53565965574935        0.26714003218564        1.16825480428753
H           -0.20462327267296        1.42290657904167        0.97906156417139
H            2.18242007843119       -1.09637852771933        1.08430758407202
H            1.85378309426160        0.64162926157091        1.14082956162251
H            1.81400764990059        0.72391316586712       -1.34339535151247
H            2.08710870670768       -1.02728253214279       -1.40830342193577
H            3.66612166985639        2.20666326298472       -1.15201282065239
H            6.06595149291667        2.57185315375041       -0.93120013093370
H            8.13246608191353        2.60977087047795        0.21116281082293
H            8.34117696618275        2.22426950027165       -1.52213776038222
H            9.54834546674109        1.67570557059544       -0.33267079709169
H            7.29039158335184       -3.61901960098257        0.53363997646734
H            5.69592407589659       -3.07931208564024        1.11466557176574
H            5.93827656909792       -3.46735943801462       -0.61479180701243
H            4.17469971001789       -1.93501044067501       -0.28057045853095
H           -0.11874763629829       -1.90102196898733       -0.98557855906349
H           -1.20659818711654       -1.98751179350581        0.41158624915862
H            0.45030258728153       -2.60592300728524        0.53536490223197
H           -4.83879176794558        2.37764355355079        1.51899294471837
H           -1.89565872217004        3.01739342354527        2.03419840896716
H           -2.82547099091417        1.76329300831800        2.85692841918557
H           -3.25534005931458        3.46104499756045        3.06873765631627
H           -3.01451608839063        4.48411352019874        0.28537881309249
H           -4.58331566590859        4.01161362609665       -0.37700136563461
H           -4.47629887924886        4.71765325481856        1.23370984379301
H            0.34459044679789        5.84314952285610        1.69548088241985
