25
 energy: 57.623056472939 xtb: 6.6.1 (8d0f1dd)
C            3.01905702390785        1.21651309744609        0.09646622909431
N            2.19407764166223        0.03741203680097        0.01306286533522
C            2.61450945670765       -1.24424430169212        0.07045378156842
N            1.51165111672702       -2.07153649159599        0.00794253298950
C            0.39455108086585       -1.27123931061246       -0.01218289154735
C            0.82058111680241        0.03529400728342        0.00931467748040
C           -0.12601957918719        1.14030908499743       -0.07961954514716
O            0.31777757601239        2.27527681198298       -0.20159908600027
N           -1.42810142466145        0.79786351317023       -0.02955678379435
C           -2.17854992047866        3.13602310979358        0.03463647757261
C           -1.89306602937644       -0.45613551887972       -0.02621673680518
O           -3.04986011994799       -0.80010860787517       -0.03383527707809
N           -0.90002483692677       -1.58152470039516       -0.04160792641886
C           -1.30798326997193       -2.95745648798860       -0.07076053681869
H            3.17865445316278        1.49506897670384        1.13866963123388
H            3.98652004405077        1.02348698551241       -0.33770297129402
H            2.46483963922054        2.02709814853715       -0.39086113553242
H            3.60376153011669       -1.55184207892711       -0.15666643789060
H           -1.20243814252312        3.54189895268859        0.11896213584144
H           -2.63691389457329        3.10213114417442       -0.91594235873059
H           -2.77251802383786        3.03876467705527        0.90211634723682
H           -0.92435227666974       -3.46510461562439        0.81677104320992
H           -0.88718862394935       -3.43807633823070       -0.95653991563147
H           -2.40581179092669       -2.95969933465130       -0.08477548925301
H            1.55539454940036       -3.07958550904275       -0.00908604591092
