25
 energy: 25.994766301911 xtb: 6.6.1 (8d0f1dd)
C            3.06896231398510        1.22283880784255        0.09868805770960
N            2.22055573702863        0.06994041058125        0.00302795375549
C            2.61462481323053       -1.26292676085279        0.15936235709804
N            1.44608299599530       -2.02701536572807        0.00664191410789
C            0.37615554558183       -1.19308559644793       -0.02271293176246
C            0.82682215961975        0.10883569456047       -0.01582046758131
C           -0.02465217632972        1.24132354650924       -0.06486818073037
O            0.44415473117493        2.38397777161770       -0.15442923111638
N           -1.43758450463455        1.03699739847388       -0.01820117320325
C           -2.09124179867488        2.56275981029089        0.00714542065368
C           -1.91883960698000       -0.30878155237919       -0.03313174374709
O           -3.08660644711741       -0.62946609829262       -0.04970313130900
N           -0.96118215704723       -1.43098536351769       -0.04222558040786
C           -1.36608501751219       -2.82367102840016       -0.06206707119199
H            3.36854908254687        1.42736601346782        1.12846565431244
H            3.96062100329166        1.07037704865150       -0.48178049594582
H            2.45910350402443        2.06260991828267       -0.25954433297258
H            3.58769398870322       -1.58447359918412       -0.19909977975849
H           -1.20681295167524        3.21367476105217        0.05917779772993
H           -2.65727634691944        2.74622244342073       -0.90374755962903
H           -2.72852208730879        2.71250869640220        0.86720669752451
H           -0.97646047036534       -3.34351005875343        0.82166260257078
H           -0.95133016935823       -3.32621262738250       -0.94325945516599
H           -2.45974389780677       -2.83775223628490       -0.07912960419973
H            1.47096257650440       -3.03548953733641       -0.00078852616337
