25
 energy: 5.930971633004 xtb: 6.6.1 (8d0f1dd)
C            3.12697325373732        1.21738284408619        0.09888463054065
N            2.24881096037822        0.08967574862237        0.00898101756649
C            2.58984501502078       -1.25341054369493        0.07557540955490
N            1.41941683496543       -1.99719205688799        0.00053805635581
C            0.37198871329538       -1.14246645468454       -0.02144001009613
C            0.85349728471835        0.15407565410232       -0.00917952507072
C            0.02419684139172        1.28430449233806       -0.03443244956934
O            0.45370543928043        2.44391662686082       -0.06416161989307
N           -1.39992388563450        1.03917097326579       -0.03149998765602
C           -2.12061889807940        2.39024178331141       -0.01877297149313
C           -1.91098247558050       -0.25581410140990       -0.04629230956224
O           -3.08844855107544       -0.53369873593009       -0.06634744799108
N           -0.97225290470746       -1.37460881581850       -0.04455111139752
C           -1.40956067036810       -2.75368387124473       -0.06209114311817
H            3.51299055036334        1.36634635416408        1.11054040493761
H            3.95721238161075        1.10901912588019       -0.57385142025691
H            2.52990460159031        2.09016988419646       -0.18136537113932
H            3.58850455996717       -1.60636639209464       -0.07588777994417
H           -1.32646455866705        3.13323062963808        0.01258293636007
H           -2.73211752223940        2.51207714273349       -0.92084011210115
H           -2.78405431424269        2.48205791492123        0.84326692514110
H           -1.04998741251773       -3.28744660721087        0.82479106394655
H           -1.02482050721059       -3.27049537407292       -0.94768500151183
H           -2.50016132515605       -2.73295998438987       -0.07824482300190
H            1.41108930466595       -3.00809661025298       -0.00097686359994
