25
 energy: 56.986754321014 xtb: 6.6.1 (8d0f1dd)
C            2.98403002406019        1.21111851588343        0.07566482124312
N            2.20358282698380        0.00017420693377        0.03829012000550
C            2.65618408887793       -1.26079136416392        0.08653080251001
N            1.57911747169256       -2.10312963312311       -0.00331279813315
C            0.43531064706803       -1.34122004334967       -0.01974344580955
C            0.83899582353968       -0.02387612078381        0.02331458427737
C           -0.17199386782947        1.05924598620760       -0.07013120039008
O            0.21587239846227        2.20642923484610       -0.20424355772550
N           -1.42808866829797        0.65533243310587       -0.03925825807895
C           -2.25263604649047        3.48760650103559        0.04209223119163
C           -1.86014253207808       -0.58573044846660       -0.03396574868366
O           -3.00684088258197       -0.94876019218349       -0.03598641861525
N           -0.84216758763517       -1.69885013632591       -0.04530522664155
C           -1.25775618559197       -3.07418188687827       -0.07403467961653
H            3.04396201003733        1.60983946797629        1.08856789964968
H            3.97358967463199        1.02942716842895       -0.32890201693418
H            2.47508669335715        1.96566703765088       -0.51769785734227
H            3.67442870396259       -1.55264992974870       -0.11333062158691
H           -1.24584628498940        3.81228966353916        0.13549178493558
H           -2.70443004136730        3.44770354798988       -0.91737441190951
H           -2.86742449601275        3.36646376286887        0.90363950898522
H           -0.89664672086903       -3.59323302627811        0.81614326430945
H           -0.86018486859155       -3.56611021742774       -0.96501738715085
H           -2.35712805201130       -3.07477130128666       -0.09135175869751
H            1.63839644475591       -3.10848411379313        0.01643656362127
