25
 energy: -6.064340401919 xtb: 6.6.1 (8d0f1dd)
C            3.22295423118484        1.18500729721698        0.08904479124446
N            2.30142122154789        0.09766542860278        0.03282074804438
C            2.60715122080101       -1.24993978956482        0.03325643590816
N            1.42072047022187       -1.94928462668166        0.00120523971719
C            0.39626396818228       -1.07360185445219       -0.01020019060529
C            0.91143449195381        0.21532369522589        0.01114873179152
C            0.09936881097625        1.36903320120718       -0.00891523675164
O            0.46944384695548        2.54768666154183       -0.01207721787358
N           -1.29200711673303        1.04367077320572       -0.03148600925421
C           -2.19848604915641        2.19483356625989       -0.04435628673067
C           -1.83531189469780       -0.20882137664372       -0.04828842415188
O           -3.03204494322476       -0.40896306905732       -0.07029065208482
N           -0.94478860306799       -1.31353841936012       -0.03868904631517
C           -1.45805247267558       -2.66449503085203       -0.06073943328844
H            3.68567591921047        1.25456344586173        1.07791051783858
H            4.00323053418912        1.06282363100554       -0.66110593166368
H            2.66351899177814        2.09970476905648       -0.10637771359663
H            3.58545252725409       -1.67116204651829        0.04347772630094
H           -1.59625104508901        3.10116997656489       -0.01826997144520
H           -2.81003019667297        2.17738791593363       -0.94809354074506
H           -2.86259348972812        2.15790652013015        0.81974257150375
H           -1.14444393424273       -3.21522599373244        0.83018407246823
H           -1.11956497659994       -3.19503516641069       -0.95474736687698
H           -2.54445639059471       -2.59033097480202       -0.07537063923948
H            1.36218321767272       -2.95452834604925       -0.01197075801679
