25
 energy: 60.353084345479 xtb: 6.6.1 (8d0f1dd)
C            3.18659278576949        1.47949734415476        0.14745922006712
N            2.49810696567249        0.20908262068756       -0.04827657658696
C            2.89474629944853       -1.06348871923501        0.09665600084410
N            1.81103249291123       -1.90439298861975        0.07704519420237
C            0.63947475678048       -1.17347816811479       -0.07586504441755
C            1.12886508320901        0.14472340961567       -0.18946358348660
C            0.27148535622762        1.28375033059349       -0.23594787011416
O            0.63270690140430        2.44958539934235       -0.33959152317631
N           -1.03281692107686        0.90522894774716       -0.11228824634424
C           -2.03435262552819        1.95568550774397       -0.04189905934107
C           -1.52596805069215       -0.40163010135996       -0.04824518624444
O           -2.74213233715144       -0.38694544228770        0.04609153056469
N           -0.67427668241255       -1.49288902217389       -0.04311904151607
C           -2.73204010411330       -2.95850855604349       -0.12766154111203
H            4.13778250583423        1.39881580366349        0.65863172544218
H            3.40680585567108        1.99518368288324       -0.79330173669381
H            2.54240316931572        2.14076533524258        0.74294410343453
H            3.90279917310324       -1.42298900323246        0.16348405144231
H           -1.47527979717966        2.88663525633425       -0.04906546592676
H           -2.70115959962073        1.86922153028402       -0.89272684979123
H           -2.60532714089732        1.85222953727603        0.87874990857724
H           -2.60641795173836       -3.41109173955544        0.81844224546980
H           -2.54761687897197       -3.45622620805913       -1.03539404301394
H           -3.14899775756094       -1.99535005573094       -0.14289586612530
H            1.88207626269056       -2.90686493191935        0.17682604033198
