25
 energy: 56.024986642173 xtb: 6.6.1 (8d0f1dd)
C            3.22636999409219        1.56878969615435        0.19273115123549
N            2.61179702203063        0.26616499831273        0.01964999128635
C            3.05874682572855       -0.97584528605361        0.18583070052776
N            2.01995070542455       -1.86296231319896        0.14804003124995
C            0.81942641483054       -1.17237035768708       -0.00958543594857
C            1.26051848221376        0.15527147906327       -0.13098156002944
C            0.36622721030920        1.24718820411873       -0.31459677264194
O            0.70987000564854        2.40134997846632       -0.53277735235662
N           -0.93061167449715        0.84766030398183       -0.16802481287539
C           -1.94982758214035        1.87734500438569       -0.03373610243004
C           -1.37346887884639       -0.48430002993297       -0.00025132702206
O           -2.57341288190181       -0.54217166622927        0.16930133215716
N           -0.47348275243354       -1.51874564865306        0.02785882830359
C           -3.30845587533054       -3.02826262022975       -0.20217741917940
H            4.30117866463348        1.53875790548853        0.30375066185963
H            2.97247178747756        2.23279575061156       -0.63095874636961
H            2.81153638680463        2.04205097636578        1.08403764571997
H            4.08891500214386       -1.25032361705279        0.22203346580697
H           -1.40433550033586        2.81376957864458       -0.07360297519725
H           -2.68259685727005        1.77595164485354       -0.82421587419812
H           -2.46231345804136        1.75298478845939        0.92139340482829
H           -3.28835609070605       -3.47589080946977        0.75420897795900
H           -3.20936554816133       -3.57293879613238       -1.09548274272315
H           -3.46122847696434       -1.97845712419323       -0.24114709939069
H            2.14881086422271       -2.86157157352480        0.23188079656272
