25
 energy: 37.558358642513 xtb: 6.6.1 (8d0f1dd)
C            3.61746889616024        1.81379377593407        0.11419993558725
N            2.88213787885793        0.57068732046044        0.08069902517335
C            3.38536533288468       -0.65545462560696        0.10110880045336
N            2.38907858256697       -1.56530999752002        0.06515828807595
C            1.18209086363186       -0.89300341256908        0.02288172962205
C            1.51775111423555        0.46792447877578        0.02842025202590
C            0.47297176272188        1.45945932458140       -0.00979636568591
O            0.65636222958054        2.67021554050086       -0.00992052636561
N           -0.76787316887916        0.86839616902859       -0.04404680669078
C           -1.92852672346301        1.73847725684398       -0.06117921720591
C           -1.05174694807431       -0.53827477697025       -0.03877260760987
O           -2.21001804511840       -0.88243023132454       -0.06309963561938
N           -0.01359402812863       -1.41107030090290       -0.00910972974392
C           -4.49082780510245       -3.61597333360482       -0.18873947597208
H            4.22961064365151        1.87202608497026        1.02105740359603
H            4.26397122016931        1.90071178977781       -0.76546163676864
H            2.89820325813199        2.63954933619465        0.10554591411395
H            4.42764261747186       -0.89711249999537        0.14209560372801
H           -1.57610741101776        2.76830309960192       -0.05097070710433
H           -2.51823084118205        1.54370704356550       -0.95655829465621
H           -2.55064600190100        1.53682471130940        0.81120175430619
H           -4.83315380252602       -4.06108264676845        0.71830941938679
H           -4.77573711086594       -4.03077238240864       -1.12879015957581
H           -3.87826184827401       -2.74432003115903       -0.15769775113859
H            2.48824611434457       -2.56867939152008        0.07711069912229
