25
 energy: 3.695489067191 xtb: 6.6.1 (8d0f1dd)
C            3.26075459119960        1.29304444826639        0.11815990377873
N            2.39604281558821        0.12904756461820        0.01165829859033
C            2.71061907795298       -1.23498233723093        0.04308174932937
N            1.53109678497169       -1.94612498187544        0.03104892154508
C            0.46583902163576       -1.12357274522610       -0.02198639640853
C            0.98479383265703        0.18838298937343       -0.03328291808476
C            0.14636186700097        1.31861314264764       -0.05889194422867
O            0.43958305236486        2.51731430411900       -0.08754234199233
N           -1.24099323629845        0.95578249445017       -0.04953180961966
C           -2.18465999991231        2.06244198523892       -0.04864100726770
C           -1.77208319308992       -0.28542787534785       -0.05833227317404
O           -2.97798656576347       -0.46147513458228       -0.07023544450056
N           -0.89913800688343       -1.40827308144711       -0.04836055839513
C           -1.70125449822162       -2.64844202882576       -0.06228583608119
H            3.88078768118629        1.31295749919623        1.02632345291450
H            3.95713402437198        1.41081914295692       -0.72861656002891
H            2.62546530020732        2.19048840847142        0.16627005669661
H            3.67074161852783       -1.71214630921843        0.07052645096748
H           -1.60536744450417        2.98704225213984       -0.03117349231266
H           -2.79931742806229        2.01125176945249       -0.94467836228486
H           -2.81430410575303        1.99308913672746        0.83522374211361
H           -1.59265775010512       -3.25345182507587        0.83738736805041
H           -1.55963871968879       -3.24921306318256       -0.95968219742568
H           -2.72788889871823       -2.29438516593138       -0.07876534169337
H            1.48332683690668       -2.94888800941479        0.07852216392363
