25
 energy: -2.239715418132 xtb: 6.6.1 (8d0f1dd)
C            3.25869353054017        1.25473276195819        0.10871804190903
N            2.36589481362717        0.12369512814179        0.01925998180109
C            2.66982713774604       -1.23743929331181        0.04136716008468
N            1.48529590171850       -1.93737999925196        0.02180048651569
C            0.44230294940157       -1.08987640563286       -0.01693143934506
C            0.96291533061337        0.21240102385058       -0.01716679489715
C            0.13144146247824        1.34844436058918       -0.03476376899267
O            0.44388355221981        2.54319234392119       -0.04388985370553
N           -1.25674536218601        0.98950381013362       -0.04158619724416
C           -2.20198735130211        2.09304870666728       -0.04881308423826
C           -1.79313279770635       -0.25294651230528       -0.05394579047838
O           -2.99575241340150       -0.44287192712086       -0.07053507329599
N           -0.91148470327158       -1.36135009322088       -0.04432725481757
C           -1.62562860691799       -2.63341987115699       -0.06078392374585
H            3.82637651556131        1.28315231522835        1.04808272438619
H            3.99029780514024        1.28731507740556       -0.71017695387119
H            2.65612189067886        2.17065250170694        0.07710821271710
H            3.63085771943399       -1.70352518358084        0.05653267928298
H           -1.62631440094382        3.01880811592037       -0.02899715518469
H           -2.81159020704207        2.04082368329808       -0.94880301244280
H           -2.84044050944392        2.02415962154706        0.82929400337661
H           -1.45177038449502       -3.23153732630795        0.83485128986906
H           -1.42149688875448       -3.22094814709006       -0.95712043993927
H           -2.67889271780881       -2.37077898052611       -0.07681224051603
H            1.41646946419658       -2.93953080491586        0.05326963508044
