25
 energy: 46.301177874312 xtb: 6.6.1 (8d0f1dd)
C            3.38349413613407        1.66224643994778        0.14056233325786
N            2.71118292395546        0.38303348040177        0.03251563835096
C            3.18765741194833       -0.84912233670678        0.10681199423356
N            2.18559095638366       -1.76585667974263        0.10017758459776
C            0.96644755153443       -1.08091573058626       -0.00062887880933
C            1.35691876743624        0.26773956304387       -0.08218516940187
C            0.40826760163002        1.32293614863953       -0.22707507592745
O            0.69471263765664        2.50775903918260       -0.34333835222818
N           -0.86863359323757        0.83647111020915       -0.20196924568091
C           -1.92485958050068        1.81924874243717       -0.04180849643431
C           -1.24865254714696       -0.51963090236641       -0.01508238036118
O           -2.43537735887930       -0.71028253478061        0.12059556784750
N           -0.28696271190228       -1.49343462635548        0.02147478437043
C           -3.74861239625153       -3.27212066376450       -0.20520017794572
H            4.38991581816753        1.59022485739406        0.54821627723269
H            3.42748680368662        2.17844960435516       -0.81704064135233
H            2.79559956359248        2.32911379837766        0.76811644169791
H            4.22535115992514       -1.04666661541931        0.23755005155918
H           -1.43389417237157        2.79144618374944       -0.07765904058458
H           -2.65907406070625        1.68139321561897       -0.83776334450959
H           -2.40155979060624        1.65388239305015        0.92542192117628
H           -3.89510960937395       -3.74156771664071        0.73803522327712
H           -3.82089899341093       -3.79998828045280       -1.12444276130780
H           -3.66452130250966       -2.20966039581347       -0.22651327734538
H            2.38107995104786       -2.75377219283904        0.22505714543862
