25
 energy: 39.699303952633 xtb: 6.6.1 (8d0f1dd)
C            3.19453270563040        1.40202745053764        0.14348505121241
N            2.43861943303549        0.16070024511781       -0.04394353033637
C            2.80725062744642       -1.16505066234107        0.07188131713017
N            1.68152402220899       -1.95848621617729        0.06379424035558
C            0.52585521263197       -1.24627092849486       -0.06581351052484
C            1.02071536998053        0.10170760779555       -0.12939438443113
C            0.22738849390093        1.24871330082446       -0.17012860825110
O            0.55626792714714        2.43979283417371       -0.24496758977231
N           -1.13835945991889        0.88822237828857       -0.09197511976245
C           -2.09337095715560        1.98433424044753       -0.04422586884540
C           -1.68180881568577       -0.34562047628953       -0.07551139702131
O           -2.90486630570290       -0.36998066851362       -0.03675704522815
N           -0.91735915208134       -1.55793472461945       -0.09725009273052
C           -2.04386265796149       -2.68675471731762       -0.09358576989292
H            4.05017439369520        1.31662969290674        0.81496645439502
H            3.62019106261201        1.80459114182416       -0.78922174599483
H            2.50959408354856        2.16135686579391        0.55316584423430
H            3.80602440223223       -1.54739770484521        0.12392930291375
H           -1.50725268449440        2.90326936783892       -0.04322067397052
H           -2.73999059646391        1.92448290017757       -0.91354069241269
H           -2.68324226231674        1.90697967853354        0.86594559306910
H           -2.15044744153397       -3.29136138756061        0.80841810841747
H           -2.11029399562689       -3.32028384711165       -0.97254353747733
H           -2.93707168487857       -2.07861084736099       -0.10624716543406
H            1.74934343816792       -2.95822397307935        0.14835726268645
