25
 energy: 37.603276659656 xtb: 6.6.1 (8d0f1dd)
C            3.64161979664006        1.82898408081063        0.11687155832428
N            2.90527722926666        0.59088867279012        0.08486379467345
C            3.41533005375831       -0.63224332699286        0.09236897402395
N            2.42375728915147       -1.54622929684021        0.05392580252563
C            1.21641516496474       -0.87740734646599        0.01937620699168
C            1.54140319434790        0.48599775066640        0.03978178426636
C            0.48379945542614        1.46870510481647        0.01672127569427
O            0.65044936726548        2.68066328373630        0.03800683370918
N           -0.75382604145196        0.86862620514610       -0.03228138332527
C           -1.92471989089982        1.72681328439681       -0.06081489622713
C           -1.02342401400871       -0.53789446196618       -0.04777339990710
O           -2.17579818679713       -0.90083095778819       -0.08260183787466
N            0.02445665289779       -1.39919293718091       -0.02158845568085
C           -4.57682672162520       -3.65194032667906       -0.18362629545054
H            4.23408044662833        1.89629279529013        1.02994734096268
H            4.30910464479371        1.89616384989577       -0.74270072781147
H            2.92711076532561        2.65210198615225        0.08776200709619
H            4.46041322432238       -0.86576489069628        0.12485973042595
H           -1.58718357360152        2.76095323920138       -0.04175656061003
H           -2.50383578841365        1.53170532015136       -0.96379527399224
H           -2.55794323441159        1.51728180854145        0.80169472593407
H           -4.95524273249806       -4.07117687891964        0.72538898358561
H           -4.91130669691788       -4.04379053134657       -1.12115616796657
H           -3.87844825267045       -2.84091013983147       -0.15662747564475
H            2.52755215347670       -2.54876749814252        0.05018736847370
