25
 energy: 28.570866877457 xtb: 6.6.1 (8d0f1dd)
C            3.22039559940717        1.38658309272537        0.13505151350482
N            2.43066416070254        0.15977660816267       -0.02882132769950
C            2.78208890704958       -1.17827472736493        0.05973449193565
N            1.64264188673280       -1.95276740142829        0.05606757584194
C            0.50599205363211       -1.21498932005558       -0.04837457320145
C            1.01214656905219        0.12453418473824       -0.09821378778196
C            0.20830135105280        1.26630735172115       -0.13742089409765
O            0.52876013701126        2.45943384627477       -0.20414089019020
N           -1.16292004757641        0.90949173762385       -0.08081026274503
C           -2.11456491637874        2.00823258019800       -0.04627419673933
C           -1.70562935962138       -0.32071758574797       -0.07125146358919
O           -2.92851172711055       -0.36609517277676       -0.05597973321623
N           -0.91480739757492       -1.51788602361164       -0.07210841624433
C           -1.96339227243469       -2.66163004686973       -0.08125354241139
H            4.01919202455162        1.31677409920106        0.88042632091170
H            3.72967764809167        1.73420136955436       -0.78397839963771
H            2.53059414833577        2.18729118036728        0.45427552122373
H            3.76999173081235       -1.58565802831708        0.10962410235489
H           -1.52870399157525        2.92741147633483       -0.04238702305696
H           -2.75359742927453        1.94957625396182       -0.92163932099923
H           -2.71145773562658        1.93842575318159        0.85912283629487
H           -2.01969780126387       -3.27891873616848        0.81577853662419
H           -1.98008467130767       -3.29602246571677       -0.96382985197011
H           -2.88104813985741       -2.08307194571508       -0.09580210096132
H            1.68474566989095       -2.95440068017777        0.13192857723803
