25
 energy: 40.345553794201 xtb: 6.6.1 (8d0f1dd)
C            3.50534549978015        1.72986142466734        0.12871738879488
N            2.79479060073844        0.47354299642986        0.06288385693162
C            3.27815744449542       -0.75570711858719        0.12836478512750
N            2.28138136645465       -1.67122881499260        0.10004486268206
C            1.06947561799017       -0.98822042223714        0.01517900103104
C            1.43570799454429        0.36732554106095       -0.03177951480132
C            0.43993138336473        1.39377714689680       -0.12136428990198
O            0.67628033104130        2.59446606269519       -0.17511384401629
N           -0.81899479857088        0.85366441611253       -0.12737934552004
C           -1.92978235284615        1.77900336671939       -0.06190170696960
C           -1.15409053765946       -0.53131680827053       -0.02262242004883
O           -2.32963101390612       -0.80556041999627        0.03549126108982
N           -0.15363372428450       -1.45492802513122        0.01385890090639
C           -4.10794752955974       -3.46009490785329       -0.19824939720477
H            4.34960917906451        1.70248763007529        0.81334967247273
H            3.86004157736523        2.04527171409168       -0.84662058251501
H            2.82073827767231        2.50769177523355        0.45017681803739
H            4.31164189449175       -0.97869884208588        0.25799508536520
H           -1.50378404175428        2.77989286866110       -0.09779032452007
H           -2.59681291708227        1.60747509961075       -0.90706050889442
H           -2.47571859202110        1.60860293928847        0.86665255398485
H           -4.35968000536318       -3.93143338044809        0.72314462239933
H           -4.29835245591735       -3.93267382937635       -1.13240793183639
H           -3.78979057732637       -2.44615179306767       -0.19024481335161
H            2.45660993193619       -2.66911844636762        0.19861783477124
