25
 energy: 42.509047723252 xtb: 6.6.1 (8d0f1dd)
C            3.46455467263114        1.70847853570982        0.13408620931993
N            2.76396079113731        0.44749868536223        0.05457740216236
C            3.24476456149617       -0.77991668953668        0.13356345268875
N            2.25300972578636       -1.70066153015027        0.10731807564917
C            1.03496422136298       -1.02073554684559        0.01046121711188
C            1.40774548031632        0.33363940614690       -0.05258357206902
C            0.42876941743973        1.37054494190634       -0.15910551554638
O            0.68304608697694        2.56646314419514       -0.23102313095244
N           -0.83578761606289        0.84813851260980       -0.15459094313430
C           -1.92824706079661        1.79180792438262       -0.05450321350820
C           -1.18545721798893       -0.52824748900319       -0.01918340475391
O           -2.36524222828418       -0.77620515004384        0.06696619495920
N           -0.19786296262839       -1.46939478234274        0.01793109618494
C           -3.98492882570598       -3.39899134854792       -0.20055092600145
H            4.37251110913146        1.65631905351545        0.72905457883045
H            3.71556061126921        2.09547545264168       -0.84764910004769
H            2.80634679934378        2.45622597629347        0.56333390366927
H            4.27442831925203       -0.98600326823797        0.29067991218801
H           -1.48101938218331        2.78290748047555       -0.09107564632821
H           -2.62001461147467        1.63226988629999       -0.88319209276575
H           -2.44797221581297        1.62107118637653        0.88887568412974
H           -4.20450184923082       -3.87110722251715        0.72814920153323
H           -4.13851806136467       -3.89216312192862       -1.13050876113362
H           -3.74643733509347       -2.36250955132737       -0.20196695335095
H            2.47458112244726       -2.68716470338528        0.22613864469093
