25
 energy: 19.245365168071 xtb: 6.6.1 (8d0f1dd)
C            3.24560000545316        1.36255972538556        0.12623489144617
N            2.42993780115109        0.15156534685763       -0.02048532035456
C            2.76440175100141       -1.19806995055826        0.04809920387313
N            1.60853016435188       -1.94790854801375        0.04669575430185
C            0.49431546378961       -1.18251582949373       -0.03853615522092
C            1.00652085787914        0.14863973986946       -0.08003663011075
C            0.18822068002669        1.28471336780111       -0.11614890660593
O            0.49689122480129        2.47961381306417       -0.16945628580444
N           -1.18956588675133        0.92269376297021       -0.07130195161311
C           -2.13630276184146        2.02621439929049       -0.04742317275688
C           -1.72689186844403       -0.31160938106305       -0.06799149935520
O           -2.94584661906191       -0.39668451817662       -0.06318903654236
N           -0.90573666390123       -1.48278363751638       -0.06111778520255
C           -1.87375367874097       -2.65811301718628       -0.07199312497438
H            3.98473002065138        1.32158304328042        0.93648543401071
H            3.82688933325145        1.65966673485780       -0.77153628224699
H            2.56049325794742        2.19560376489718        0.35852855986660
H            3.74158937794493       -1.63080505132390        0.10082814757906
H           -1.55161877910860        2.94666710357260       -0.03759869046735
H           -2.76346667601762        1.97530937343868       -0.93191315726938
H           -2.74376631961898        1.95895772129120        0.85069764441007
H           -1.87978721722114       -3.27558887616603        0.82675909096640
H           -1.84336426745266       -3.28656687039245       -0.96039976049299
H           -2.82663379452911       -2.13755954696995       -0.08671303955408
H            1.61953164749042       -2.95092642906558        0.11131355213993
