25
 energy: 59.727776897628 xtb: 6.6.1 (8d0f1dd)
C            3.19233381055845        1.45357526705131        0.14880144581573
N            2.47737763699704        0.19188907545105       -0.03924807467961
C            2.85895430293521       -1.09298427717140        0.08099006956972
N            1.75880722327312       -1.91652962809706        0.06327052994085
C            0.59944124337691       -1.17200059570730       -0.07376262744290
C            1.09953828799431        0.14449403396643       -0.16096067947568
C            0.24913620286469        1.28845028578870       -0.20165336166725
O            0.60515788675540        2.45878481245955       -0.28820402236720
N           -1.06395183501877        0.91426744227614       -0.09861761296627
C           -2.05868132322593        1.97301436704926       -0.04266910423976
C           -1.56849401391773       -0.38531825660604       -0.06740377112501
O           -2.78791637568950       -0.37320024877833       -0.00929343488681
N           -0.72243226526053       -1.48679540362803       -0.07330250556984
C           -2.54868760340968       -2.92636597205041       -0.10765034540454
H            4.09659236765119        1.36835654903111        0.74406666822674
H            3.52040429761761        1.91450090884421       -0.79277939898218
H            2.50526349251946        2.15935930341435        0.65129679945864
H            3.86020896650170       -1.47138773714699        0.14346680309752
H           -1.49610990999026        2.90350463093168       -0.04428259720687
H           -2.71361802615591        1.89275320046697       -0.90409178113995
H           -2.64148981046415        1.87493772433940        0.87088463371864
H           -2.43664666063369       -3.39850055178221        0.83287735241428
H           -2.38474774619649       -3.43378633047592       -1.01760489756467
H           -3.07219292169487       -2.01755432707714       -0.12298226621412
H            1.81463566262601       -2.91891203483399        0.15902589117041
