25
 energy: 48.395813966161 xtb: 6.6.1 (8d0f1dd)
C            3.34249210012960        1.64086393173397        0.14839685283009
N            2.68838556036123        0.34974936847876        0.03064370860078
C            3.16152681971341       -0.88510082673522        0.11577826202572
N            2.15307896761461       -1.79818118223876        0.10480066043920
C            0.93495508774897       -1.11014799829058       -0.00101235428818
C            1.33435098802024        0.23583013245913       -0.09236003782430
C            0.40007145628482        1.30127047273208       -0.25633367751332
O            0.70017153457788        2.48094935603962       -0.40319865591324
N           -0.88351975983777        0.83258126844615       -0.20525135260513
C           -1.92326643849540        1.83461108015978       -0.04041144008388
C           -1.27899613930669       -0.51441395277859       -0.00908016683515
O           -2.46916650415118       -0.67405316806900        0.14313490563381
N           -0.32991326170770       -1.50376067721977        0.02496195457328
C           -3.63754725237851       -3.20580075886662       -0.20671014651845
H            4.38267597673278        1.57521314353276        0.46134388266686
H            3.28811399734713        2.20851349265029       -0.78083899502072
H            2.79874650642736        2.26152844998364        0.86036668503124
H            4.19996302140982       -1.09954149098955        0.22404983631955
H           -1.40707702462760        2.79374831879805       -0.08926301259590
H           -2.67101873894155        1.70002521975241       -0.82066538594758
H           -2.38872396897753        1.69012627207509        0.93618275348824
H           -3.74429402527391       -3.66918224761647        0.74391779666376
H           -3.66425362171371       -3.74941350248666       -1.11727034711654
H           -3.62521949788241       -2.13968824630626       -0.24010970002155
H            2.32836191055700       -2.78791643810308        0.22991834956551
