25
 energy: 37.911109155420 xtb: 6.6.1 (8d0f1dd)
C            3.58217113298543        1.78358176203814        0.11867833298640
N            2.85341629065275        0.53741862385322        0.07625899845058
C            3.34879467742145       -0.69050474758321        0.11047956299511
N            2.35036850609342       -1.60003120336569        0.07784167925803
C            1.14304912036905       -0.92211002655186        0.02195934379817
C            1.49012407326173        0.43666013990632        0.01003566619503
C            0.46061737995376        1.44010445757303       -0.04612524026270
O            0.66257389693227        2.64799269972077       -0.06538800250611
N           -0.78728883478629        0.86686670891912       -0.06941269164290
C           -1.93285444024889        1.75709661254200       -0.06534099258012
C           -1.08821707806744       -0.53429384429842       -0.03231539273333
O           -2.25241422077264       -0.85797852953799       -0.03049562942808
N           -0.06166467336238       -1.42313340745041        0.00023381077055
C           -4.35748070057829       -3.57354506624317       -0.19376169789752
H            4.28379264713343        1.80931269005795        0.95520080613381
H            4.12839202785094        1.95080630768876       -0.80895785709394
H            2.86697791130903        2.59798250382091        0.22766766912431
H            4.38844808227779       -0.93077862938674        0.17659306424985
H           -1.55410340538367        2.77765788335691       -0.06901805555523
H           -2.54445405836893        1.56876329584128       -0.94682480307037
H           -2.53498311641176        1.56736345490310        0.82409220275242
H           -4.67342000418674       -4.03093493219091        0.71584977841513
H           -4.61772321732219       -4.00290490226920       -1.13303981730457
H           -3.85705012892323       -2.63583259416117       -0.16905107509892
H            2.47119669214839       -2.60339236533869        0.11834261294926
