25
 energy: 53.495301209304 xtb: 6.6.1 (8d0f1dd)
C            3.26056485866228        1.59817092230223        0.17306683075759
N            2.64131188009516        0.29041434131415        0.03086386585460
C            3.09820017578807       -0.94979777405046        0.16558793351842
N            2.06808772005489       -1.84315218092508        0.14261070362610
C            0.86186582922767       -1.15581072386272        0.00237060002104
C            1.28866132524411        0.17837967210053       -0.11147407754142
C            0.38405196764898        1.26223411443771       -0.29848810603337
O            0.71146738056079        2.42564466545439       -0.50238315963057
N           -0.91285853959683        0.83938673001152       -0.18109426176516
C           -1.93749558313932        1.86367273703147       -0.03567475938042
C           -1.34094840190811       -0.49737626917186       -0.00201279564580
O           -2.53806703069864       -0.59414808921559        0.16423837381081
N           -0.42276494667970       -1.51688599522857        0.02986850802608
C           -3.42588351019036       -3.07013421511490       -0.20676451810753
H            4.33676602104637        1.56531992098465        0.29168334062586
H            3.01973957316176        2.26491114571780       -0.65444190627681
H            2.82684675031718        2.10559063810171        1.03418560539491
H            4.13152420744755       -1.20359939873478        0.22300860775486
H           -1.40263889826519        2.80922105541698       -0.08077560796410
H           -2.67815291859182        1.74973881011995       -0.81971694799585
H           -2.43524354259859        1.73123267211843        0.92754675436234
H           -3.44459546128475       -3.52250952047390        0.74999250870260
H           -3.36446092395825       -3.62306454988719       -1.10280201801613
H           -3.53983855992803       -2.01063956753389       -0.24796143746261
H            2.21067640001717       -2.83957345868771        0.23291035222177
