  72
        -99.25215882
 N         -1.6652332889        2.7746265167        2.4389460597
 C         -1.7087852607        2.0734374451        1.4077977185
 C         -2.8915733909        1.9935750956        0.4810347918
 C         -3.4063300881        0.5631496836        0.4443946614
 C         -4.3545170977        0.1900632238       -0.5100446535
 C         -4.8746630134       -1.0937112686       -0.5505326934
 O         -5.7971976289       -1.5324975300       -1.4285992844
 C         -6.3763850874       -0.6254872618       -2.3372263534
 C         -4.4275419093       -2.0606820869        0.3933642201
 O         -4.9846125458       -3.2791775659        0.2820717212
 C         -4.6585280107       -4.2738797763        1.2262472637
 C         -3.4840124401       -1.6818835065        1.3369667788
 C         -2.9857115863       -0.3873837110        1.3637780439
 C         -2.3668623858        2.4135189195       -0.9173445489
 C         -1.4942775764        1.3588472344       -1.6158180794
 C         -0.1465221914        1.2194321694       -1.0219194845
 N          0.5154595785        0.1002087061       -0.8406548905
 C          1.8958051007        0.1284164602       -0.4298011022
 C          2.8484572729       -0.1111320319       -1.6129240415
 C          4.2642931917       -0.0942826204       -1.1156294470
 C          5.0794256492        1.0320344607       -1.2569582222
 C          6.3751509902        1.0354632260       -0.7693529122
 C          6.9058012071       -0.0714237828       -0.1170664266
 O          8.1466814251       -0.1832503531        0.3776336647
 C          9.0409635899        0.8992492867        0.2478563906
 C          6.0742872264       -1.2286000021        0.0576895434
 O          6.5992509146       -2.2702882711        0.7113858263
 C          5.7678794313       -3.4045599874        0.8255611364
 C          4.8077407837       -1.1626443790       -0.4565419395
 C         -0.0481350369       -1.2095032555       -1.0369188639
 C         -4.0688461289        2.9236271737        0.9000539925
 C         -4.6461601803        2.5168341667        2.2533963933
 C         -3.6912075170        4.4020455701        0.9235934678
 H         -4.7029896930        0.9188086818       -1.2231953230
 H         -6.8648746780        0.2045374550       -1.8182072844
 H         -7.1233381286       -1.1975000879       -2.8840165363
 H         -5.6361653421       -0.2335991380       -3.0423523442
 H         -4.9148010118       -3.9591629598        2.2420135503
 H         -5.2569962487       -5.1411594989        0.9546993600
 H         -3.5972970962       -4.5368387891        1.1814805600
 H         -3.1346103684       -2.3886577303        2.0714080118
 H         -2.2768288835       -0.1258496883        2.1333802202
 H         -3.2207210061        2.6249217319       -1.5603199639
 H         -1.7966945107        3.3374712658       -0.8140775504
 H         -2.0234432128        0.4082755583       -1.6593239035
 H         -1.3486436292        1.6996523412       -2.6491699605
 H         -0.8594842551        1.4674968861        1.0414957539
 H          0.3990478545        2.1354703544       -0.8380137208
 H          2.0468064385       -0.6832223821        0.3136689571
 H          2.1287064683        1.0896262640        0.0329797153
 H          2.7023208517        0.6702551408       -2.3622890829
 H          2.6335670433       -1.0810417220       -2.0628779572
 H          4.6965990372        1.9054237337       -1.7634095746
 H          6.9793567299        1.9183458970       -0.9038043258
 H          8.6688418780        1.7874372867        0.7671839054
 H          9.2253585979        1.1399517593       -0.8034394711
 H          9.9684761767        0.5703453732        0.7119986003
 H          6.2974565598       -4.1141310587        1.4566807239
 H          4.8068123394       -3.1403780768        1.2783725734
 H          5.5820666294       -3.8470589959       -0.1580479309
 H          1.7127253508       -2.2184889326        1.0529469617
 H          0.1349479351       -1.5686410723       -2.0500703635
 H         -1.1179753036       -1.2116255147       -0.8451528409
 H          0.4401645533       -1.8969696798       -0.3310209008
 H         -4.8527523343        2.7863478805        0.1461141055
 H         -3.9084886434        2.6710013377        3.0346282039
 H         -4.9494093439        1.4726244444        2.2542549264
 H         -5.5176456997        3.1265894224        2.4761489899
 H         -2.8828493039        4.5728233961        1.6278419450
 H         -3.3963766594        4.7634311161       -0.0579639100
 H         -4.5508931300        4.9832924579        1.2464390923
 H         -0.8088013066        2.7778952581        2.9833330695
