25
 energy: 29.926971197789 xtb: 6.6.1 (8d0f1dd)
C            3.83793447647869        3.21093805860002        0.15856860346946
N            2.26902712235488       -0.72681677786920        0.00377198777324
C            2.30810601551250       -2.01664817131873        0.00349181142214
N            1.05331165129898       -2.58626768582758       -0.01934447659457
C            0.17983395976381       -1.54612387909688       -0.03364453613420
C            0.94501897045035       -0.38943359496070       -0.01906037400204
C            0.32395567654184        0.91106585535399       -0.02241196641114
O            0.86801008437171        1.98912761644038       -0.01132505175865
N           -1.08065606691653        0.80969782132605       -0.03900688796591
C           -1.84140618219877        2.05231968301892       -0.03446679851241
C           -1.84723126582353       -0.33357547780428       -0.06107219449007
O           -3.05670633073541       -0.29556591933795       -0.08197454439848
N           -1.17566024504978       -1.55654086367426       -0.05722463964679
C           -1.93594590816081       -2.78724774183242       -0.07986538036015
H            4.25704099917069        3.49385832788257        1.10035631598673
H            4.44938706022764        3.23290954732204       -0.71826294187305
H            2.82057018722323        2.89048309682309        0.09725399618717
H            3.20586335797232       -2.59990730520798        0.01893945129739
H           -1.13494663482373        2.87931536785946       -0.01622195515983
H           -2.46590994733549        2.10757733730906       -0.92550907332175
H           -2.48710971547486        2.08645274924773        0.84250916011101
H           -1.72740207597156       -3.38355489307964        0.81037802634910
H           -1.70225879477935       -3.36605442827451       -0.97545270832092
H           -2.99109997391546       -2.51669472864227       -0.09212376471975
H            0.84048788479111       -3.57028520551299       -0.02126814673197
