25
 energy: 39.417458880876 xtb: 6.6.1 (8d0f1dd)
C            3.50019084586157        2.54238876279466        0.17607985512815
N            2.37221085315474       -0.46120379307534        0.02020062243560
C            2.46123190581123       -1.75224226825332        0.02374133337699
N            1.25491281437543       -2.40921244151481        0.01341883221933
C            0.31404564037765       -1.41453056258663       -0.02585939397412
C            1.02910582011129       -0.21164453883330       -0.02499484933476
C            0.29147798033613        1.02969418752508       -0.07566580797110
O            0.70301909300565        2.15788153541654       -0.13493555670913
N           -1.08142033925118        0.84270023644886       -0.05007898450690
C           -1.88383407444162        2.06940041133275       -0.02851037141943
C           -1.78562357808583       -0.33035196812318       -0.06332326279268
O           -2.99761662159048       -0.31092676659125       -0.07942230567102
N           -1.04962829635774       -1.52152210144822       -0.06158983834881
C           -1.85524004708766       -2.73551436317167       -0.08532770169922
H            3.97284359926399        2.74042730219080        1.07972479555620
H            3.94273788243919        2.65234686108445       -0.76072058211337
H            2.45458567308695        2.63046435999049        0.16566807053394
H            3.37163271937879       -2.30142942499661        0.05246690661565
H           -1.19397977772629        2.90485682867569       -0.02079292170670
H           -2.51393610223769        2.13923975847830       -0.91232452853631
H           -2.47155643535388        2.09912030892245        0.88207719437421
H           -1.73910661985696       -3.35778543675089        0.80298131227755
H           -1.70983610857995       -3.34300994418466       -0.97980967976413
H           -2.90278139210634       -2.39330632498404       -0.09916262091000
H            1.12142811327837       -3.41102869995184        0.02933669340426
