25
 energy: 0.548243603739 xtb: 6.6.1 (8d0f1dd)
C            3.18947454503353        1.35043297656525        0.09399896753339
N            2.39285939077904        0.09172338926870        0.04723763412244
C            2.64497224029346       -1.30437477834538        0.04771512850970
N            1.43352209990622       -2.00350783895263        0.01218956209886
C            0.42412829675371       -1.11618923364774       -0.00988440051646
C            0.98021239072258        0.16059200725582        0.01073868458238
C            0.15726514900464        1.30905170766690       -0.01436601564621
O            0.53497174394586        2.48139618138628       -0.03276766610872
N           -1.23536836625658        0.99716898702855       -0.03478499410877
C           -2.15324859666876        2.12475848753345       -0.04654303070230
C           -1.80437686447728       -0.23589156872605       -0.05279793681462
O           -3.00802184790724       -0.40641305189206       -0.07694219401645
N           -0.93271826991716       -1.34248228497426       -0.04362773555673
C           -1.54498628665586       -2.65315654579299       -0.06544593939338
H            3.70706317324693        1.51553695945460        1.04895926848071
H            3.96418510111113        1.37216120189266       -0.68602086115541
H            2.50394798864388        2.17632270018247       -0.05521764843376
H            3.58920287751545       -1.79064723201369        0.04789050464401
H           -1.56556520911965        3.03772737751734       -0.02466164185261
H           -2.76267529583682        2.10553388664151       -0.94847949310450
H           -2.79531721242280        2.08861508602727        0.83009964896813
H           -1.29309708973703       -3.22939538713178        0.82685896634549
H           -1.26560713194774       -3.21041108046667       -0.96165092889402
H           -2.62554242645695       -2.48969070498370       -0.08056289112828
H            1.29869226237568       -3.00445360149517       -0.00351963162906
