25
 energy: 7.052421611209 xtb: 6.6.1 (8d0f1dd)
C            3.17682135986583        1.41196350639150        0.09743855451448
N            2.42249225235801        0.08385539689542        0.05625818952744
C            2.66150841726542       -1.32977410385965        0.05696971691651
N            1.44487378137511       -2.03040536407560        0.01723426564218
C            0.43624390277638       -1.13912488272237       -0.01025822834047
C            1.00154999617308        0.13693933150632        0.01023384068217
C            0.17274966572472        1.28224073976415       -0.01957628288023
O            0.54489265434701        2.45467130078492       -0.04531695430042
N           -1.22074013861142        0.97957348282648       -0.03764537134537
C           -2.12761424850900        2.11742824163761       -0.04576468484861
C           -1.79393283175923       -0.24917428472514       -0.05583721188577
O           -2.99815609873991       -0.41343329827923       -0.08006011857172
N           -0.92653462798891       -1.35954687325150       -0.04667896357874
C           -1.56724294549059       -2.65768820865693       -0.06679801422326
H            3.70629956891268        1.61530797449581        1.03956384871436
H            3.94618092670870        1.48279696528603       -0.68834122343046
H            2.44185848715241        2.19486731549857       -0.03823844462013
H            3.59255224288095       -1.83908715358234        0.04643666216939
H           -1.52955948344467        3.02376157416067       -0.02461097323450
H           -2.73887019084536        2.10669811652438       -0.94628605414910
H           -2.76480687713885        2.08802060462957        0.83405467170605
H           -1.33171449127263       -3.23969981030360        0.82577642469753
H           -1.30534786539387       -3.22250525411782       -0.96303210373279
H           -2.64472679152684       -2.46919097674243       -0.08093737442147
H            1.28927959153062       -3.03228897137097        0.00282709703460
