25
 energy: 30.353216820633 xtb: 6.6.1 (8d0f1dd)
C            3.80164535633498        3.21403902344091        0.17039032612894
N            2.29551138960379       -0.73694903213620       -0.02679563374017
C            2.31001689187229       -2.02947710509246       -0.00293300830154
N            1.05429545950571       -2.58729295837036       -0.01100698431309
C            0.19286944688461       -1.53575691978144       -0.02660341484552
C            0.97057458758938       -0.38477604726190       -0.02605759669531
C            0.32610113050414        0.90897969280730       -0.01246099129549
O            0.86076743501264        1.99017381387653       -0.00633240218477
N           -1.07971481743225        0.80962152528548       -0.03462204212373
C           -1.83855323956594        2.05429008537427       -0.03521405252031
C           -1.84748167789967       -0.33093063779264       -0.05876498528086
O           -3.05708775342637       -0.30487197277573       -0.08377260012501
N           -1.16517762571697       -1.54893564007854       -0.05363764726140
C           -1.92258433563046       -2.78204081993534       -0.07771347425272
H            4.24143291278032        3.40902878630479        1.12107003940569
H            4.38284475192240        3.22829064224668       -0.72351920287318
H            2.80018295162351        2.87689869028013        0.11051742491138
H            3.20143292084396       -2.62068744471697        0.01285324663404
H           -1.11403922050168        2.86660400947016       -0.01523292637594
H           -2.45684311113329        2.11254737856899       -0.92821355845223
H           -2.48391090667720        2.08854962272948        0.84197249457085
H           -1.71907403984803       -3.38061152646346        0.81170935858980
H           -1.68803184664755       -3.35971613506538       -0.97403819603533
H           -2.98310236708461       -2.51105425991519       -0.09297444732176
H            0.85325398541463       -3.57450557780743       -0.02507327442074
