25
 energy: 26.376257472900 xtb: 6.6.1 (8d0f1dd)
C            3.17022539435715        1.53954180623439        0.10901672829834
N            2.45176488128672        0.04482080615018        0.06011207127532
C            2.67000708415821       -1.38231547960633        0.10075201015329
N            1.45513313330861       -2.08702779998724        0.03151775396104
C            0.44472485327348       -1.19243366085772       -0.00666998534827
C            1.02852943421164        0.08429350112825        0.01305448194356
C            0.20748481511548        1.23067492768244       -0.03041139657445
O            0.58307432726544        2.40415184503150       -0.06993512004507
N           -1.18686942832984        0.95014158989371       -0.04474947348391
C           -2.07889362990234        2.10165682963878       -0.04316944399183
C           -1.77460494676116       -0.26928145738092       -0.06270924685481
O           -2.98251069090907       -0.40024605469467       -0.08467734936532
N           -0.92503207012699       -1.39522351457177       -0.05123133133797
C           -1.61906359198701       -2.66934287929282       -0.07229924154961
H            3.70580341076700        1.82586510882761        1.02142557003434
H            3.90157797968748        1.67939749356323       -0.69422540036415
H            2.35461123471939        2.26064119765713       -0.00833019717638
H            3.58362333726568       -1.93051659779546        0.04160682004210
H           -1.46688950209864        2.99870725444035       -0.02415815399509
H           -2.69693142242084        2.10703154526844       -0.93844756825643
H           -2.70617916515009        2.08330130918143        0.84341355947740
H           -1.41457543237017       -3.26436712598328        0.81882327012436
H           -1.38951888802988       -3.24659293153102       -0.96890440943533
H           -2.68815136635600       -2.42995263691352       -0.08468560064332
H            1.32696544305726       -3.09565605310788        0.01169331395483
