25
 energy: 42.390875562037 xtb: 6.6.1 (8d0f1dd)
C            3.34295369614447        2.17032709150734        0.14794660232940
N            2.41513581418931       -0.29085393952051        0.03300121962047
C            2.54810925939933       -1.58153409853409        0.04396045302722
N            1.35822417569030       -2.27676785768254        0.01598010278770
C            0.38495241256621       -1.32039371592811       -0.01895782157801
C            1.05359659110858       -0.08974404755240       -0.01142165873110
C            0.26481227261549        1.12198604143544       -0.06250979741977
O            0.64036421795009        2.26017216674863       -0.14680690758172
N           -1.11768786813918        0.88706401310864       -0.04864407947481
C           -1.97542912850081        2.07565992829611       -0.03618151186597
C           -1.76367855312526       -0.31549561765579       -0.06425298758456
O           -2.97426607822165       -0.35357035338105       -0.08130077612560
N           -0.97523397899881       -1.47489247181203       -0.05933449268486
C           -1.73908446799683       -2.70731680558728       -0.07911987989464
H            3.81032445686416        2.31716072617034        1.06317632877693
H            3.84977428323491        2.18629197808635       -0.76338972677273
H            2.32457033265682        2.44628412752649        0.13127754307079
H            3.47780344766081       -2.12167401632036        0.04090335057319
H           -1.32811437558548        2.94184070730397       -0.02392800213676
H           -2.60048080736350        2.11391285370985       -0.92523384368849
H           -2.58462132292472        2.09282591102574        0.86184122561258
H           -1.58046623289889       -3.31397137326678        0.81261925146414
H           -1.55221884028679       -3.29980446232561       -0.97448275777588
H           -2.79227635466544       -2.38436459777617       -0.09447890098776
H            1.24850321388913       -3.28131525658539        0.03123827190158
