25
 energy: 0.000000000000 xtb: 6.6.1 (8d0f1dd)
C            3.23720163006194        1.16630919979326        0.08434469647475
N            2.29877817382611        0.07527477071623        0.03981603040599
C            2.58028210190900       -1.21425402444508        0.03006176031096
N            1.43813958087363       -1.93419271955128        0.00098261760884
C            0.39035688448383       -1.05887472636071       -0.00790371836672
C            0.93510056364412        0.21347819449412        0.01709077491437
C            0.09450143893243        1.40504303904423       -0.00410947031874
O            0.49712751527797        2.54126714362870       -0.00342325688240
N           -1.25076640035757        1.06271879480407       -0.03085478223738
C           -2.21907211982101        2.15522099834493       -0.05001256985998
C           -1.81739487048744       -0.20012725993278       -0.04692818574614
O           -2.99983886758376       -0.37846417018721       -0.07008878229737
N           -0.92618586207120       -1.30210215599479       -0.03682761578324
C           -1.46982264913417       -2.64643102187190       -0.06029820460571
H            3.71247264356769        1.21471455160235        1.06488849150277
H            4.00791497605742        1.03430808813993       -0.67357694370751
H            2.69910007168542        2.09770118228144       -0.09130154882931
H            3.56654120610678       -1.63682992603973        0.04233140067262
H           -1.67107961066214        3.09322851271934       -0.02552706933167
H           -2.82428953597071        2.09428624779827       -0.95318082946668
H           -2.87644029173232        2.07745725625962        0.81450067533302
H           -1.17061996399332       -3.19584890659852        0.83242232437030
H           -1.14560257411436       -3.17511610292205       -0.95688275822323
H           -2.55549792440841       -2.55659984320617       -0.07459039797972
H            1.38130855184625       -2.94313852034425       -0.01389874181052
25
 energy: -0.912554818831 xtb: 6.6.1 (8d0f1dd)
C            3.23363047383648        1.16971474357026        0.08565193814979
N            2.31684962298936        0.07965960243418        0.03760987328054
C            2.66289598289757       -1.24379539420843        0.03119257804379
N            1.45915344019364       -1.94605535863654        0.00139889906821
C            0.40472472094860       -1.06788032664016       -0.00822129417617
C            0.93291469768574        0.20962203255045        0.01527789486542
C            0.09423960398247        1.38785395928470       -0.00446706900948
O            0.48838654935473        2.55417227775287       -0.00302923221748
N           -1.27113550358605        1.05357772682441       -0.03100887184370
C           -2.23321916431769        2.15401433920386       -0.04994031906828
C           -1.83244505171195       -0.19744925196529       -0.04767538164299
O           -3.03037561594753       -0.37609121062000       -0.07124295072636
N           -0.93853107993482       -1.30100361644446       -0.03719494873943
C           -1.50142034094273       -2.63424668497797       -0.06071141924122
H            3.70647085110828        1.20950201553182        1.06927823564889
H            3.99868173438896        1.02677288159428       -0.67720116618702
H            2.68348065114172        2.09156567902993       -0.09197692719073
H            3.75429127631136       -1.62256031374274        0.04715607613161
H           -1.67726289797259        3.08907710897177       -0.02542892631290
H           -2.84222642654086        2.10437468836837       -0.95279218969906
H           -2.89461359709426        2.08767566694664        0.81398846392673
H           -1.20715191386930       -3.18874360761645        0.83164827930423
H           -1.18186372838525       -3.16821840856068       -0.95700520934882
H           -2.58762261206323       -2.53452450608642       -0.07516115798735
H            1.37436299546359       -2.94798544039239       -0.01311127888094
25
 energy: 12.101031063916 xtb: 6.6.1 (8d0f1dd)
C            3.22639031415241        1.16608011149565        0.08627326130378
N            2.32601703418042        0.07260698834816        0.03322680734051
C            2.74477759582905       -1.27188773917190        0.03272795762766
N            1.48579587073206       -1.95583042408693        0.00248704235482
C            0.42175955807729       -1.08273164592899       -0.00841167172548
C            0.92964552247640        0.20022560996212        0.01313346604103
C            0.09466830839770        1.36542480771000       -0.00452067708691
O            0.46840247336396        2.54667238056839       -0.00240548056859
N           -1.29067744364727        1.04838156302540       -0.03104648323582
C           -2.24676227945915        2.15610223580134       -0.04981489958143
C           -1.83746047166427       -0.19443811579687       -0.04819916862450
O           -3.04064435531275       -0.37666229269799       -0.07251800138672
N           -0.94367384921003       -1.29995852842206       -0.03733643151860
C           -1.53778970086006       -2.61995503175233       -0.06120946500825
H            3.69991858513026        1.20608285250632        1.07080591221109
H            3.99038117358622        1.02310644692149       -0.67861759420491
H            2.67059555355315        2.08338208855585       -0.09163707121741
H            3.95625052394576       -1.57745738727459        0.05257399649734
H           -1.68586612225147        3.08908058658277       -0.02524500511134
H           -2.86033767330853        2.11442665475602       -0.95145028590722
H           -2.91285023804527        2.09783221348192        0.81258144376173
H           -1.25843184897760       -3.18351953599295        0.83097108709109
H           -1.23265011508409       -3.16315751997421       -0.95771956935742
H           -2.62409470746155       -2.50072367769711       -0.07582444919828
H            1.36885095979360       -2.95405403874748       -0.01179082434887
25
 energy: 23.581691757151 xtb: 6.6.1 (8d0f1dd)
C            3.22347749139505        1.16439828343263        0.08614592417473
N            2.32969564527795        0.06532311207716        0.02986716702085
C            2.78256997329697       -1.28415398521679        0.03371718488324
N            1.49926543845387       -1.96048224929624        0.00359176369262
C            0.42981490445537       -1.09310739416790       -0.00818007278708
C            0.93008529874986        0.19431611142219        0.01225105746292
C            0.09657370772970        1.35801874061269       -0.00428097690339
O            0.45704442051152        2.54073798351780       -0.00174603177200
N           -1.29809724300624        1.04949760237961       -0.03104613194818
C           -2.25416767421864        2.15692769044961       -0.04981618937415
C           -1.83741934586487       -0.19402281524374       -0.04850371607630
O           -3.04056203729778       -0.37968148509046       -0.07347978871865
N           -0.94342706669334       -1.30120350818760       -0.03715496594741
C           -1.55931860555984       -2.61323340693064       -0.06142635351718
H            3.69566975430866        1.20681839668015        1.07146596553272
H            3.98831896709050        1.02655265258986       -0.67884959632228
H            2.66488702025711        2.08051620571631       -0.09142241942815
H            4.07354801117732       -1.55482700203891        0.05457834680668
H           -1.69421888244619        3.08990787843153       -0.02519058820893
H           -2.86940776527351        2.11571580542839       -0.95077667283234
H           -2.92196260687946        2.09912248995327        0.81175608116290
H           -1.29279310097690       -3.18196532910118        0.83106845104015
H           -1.26648292395439       -3.16160112923062       -0.95857096282978
H           -2.64473940746410       -2.47660202254339       -0.07619766662905
H            1.36386069486765       -2.95794402347174       -0.01076591233468
25
 energy: 30.262839959399 xtb: 6.6.1 (8d0f1dd)
C            3.22202346976679        1.16297221052819        0.08605894963652
N            2.32883749090543        0.06165737738336        0.02813644273957
C            2.78907131784631       -1.28731844786999        0.03461949442892
N            1.49818513149625       -1.96093079048631        0.00396008586594
C            0.42834543009610       -1.09547930452737       -0.00805895413440
C            0.92934269291241        0.19336569028510        0.01209511831668
C            0.09748776820298        1.35951651387731       -0.00431353693472
O            0.45249024131994        2.54032947377382       -0.00138632749924
N           -1.30003616958739        1.05215351341712       -0.03109722284741
C           -2.25671668469121        2.15790795867662       -0.04985513028144
C           -1.83911661994192       -0.19297518251470       -0.04857412503267
O           -3.04168107601916       -0.37841088963076       -0.07376157184187
N           -0.94488373410899       -1.30131276238528       -0.03699526434902
C           -1.56439187154843       -2.61253114222425       -0.06141531200887
H            3.69276793306456        1.20575223065111        1.07182547603059
H            3.98703997304307        1.02660661519300       -0.67864372139354
H            2.66342831798667        2.07948090894670       -0.09169397064873
H            4.13268193938646       -1.55414266217728        0.05503057899638
H           -1.69794931649186        3.09117914754337       -0.02524914218966
H           -2.87205389550314        2.11561929983048       -0.95076331367737
H           -2.92452827666391        2.09905419597105        0.81171791265202
H           -1.29997965780675       -3.18112840156617        0.83094447916778
H           -1.27355149376653       -3.16072163726125       -0.95850001452492
H           -2.64911661519169       -2.47371253407989       -0.07623170211575
H            1.35451837323022       -2.95790277918199       -0.01081533220754
25
 energy: 42.175957579674 xtb: 6.6.1 (8d0f1dd)
C            3.21939173841587        1.16050449286371        0.08595733619859
N            2.32408646749171        0.05796904641974        0.02615180553569
C            2.78308800970499       -1.28732304751560        0.03764583044920
N            1.48849829750243       -1.96000598131820        0.00418620240007
C            0.42022634909179       -1.09512441672042       -0.00813021142591
C            0.92603802329878        0.19428100869530        0.01230187447600
C            0.09753960306222        1.36529809092302       -0.00460098170763
O            0.44648605769180        2.54271923660847       -0.00097791655894
N           -1.30206687985807        1.05562334109987       -0.03126930776528
C           -2.25915850149922        2.15931560894771       -0.04993263633951
C           -1.84409852657499       -0.19139429493169       -0.04863852951330
O           -3.04544993318567       -0.37536411349984       -0.07382841511496
N           -0.94912488121238       -1.30048276603708       -0.03692297844441
C           -1.56728773160647       -2.61322046144385       -0.06140048663768
H            3.68832158193049        1.20240528283026        1.07202006324729
H            3.98424003144946        1.02325791992462       -0.67803817406845
H            2.66264208844072        2.07844297074955       -0.09256325107477
H            4.23293076246569       -1.56571731131512        0.05478845281306
H           -1.70166043182949        3.09300941935664       -0.02532984217769
H           -2.87443426421706        2.11632728385396       -0.95086599236967
H           -2.92674474267722        2.09975524706374        0.81181304415349
H           -1.30173359453577       -3.17985710715932        0.83086200141459
H           -1.27533724015130       -3.15940187689867       -0.95839555852510
H           -2.65142321442059       -2.47588308350438       -0.07620549103623
H            1.33724559915850       -2.95610588682042       -0.01159294178115
25
 energy: 55.546027512951 xtb: 6.6.1 (8d0f1dd)
C            3.21532673536328        1.15746069799311        0.08606465409667
N            2.31431025331264        0.05700651098379        0.02798090485017
C            2.75690445539584       -1.28180224597966        0.05327833589170
N            1.46958285753930       -1.95840013044859        0.00401113760109
C            0.40489389720481       -1.09077020561585       -0.00955314529728
C            0.91831685607996        0.19740951280342        0.01279581777721
C            0.09469558775242        1.37299571949616       -0.00642185569340
O            0.44084096457590        2.54791146258123       -0.00143883651167
N           -1.30535998941231        1.05784627291657       -0.03188409982343
C           -2.26140011357161        2.16129303831953       -0.04993278716663
C           -1.85306579375504       -0.18921468276941       -0.04892674004700
O           -3.05312106660623       -0.37110351114358       -0.07308323371611
N           -0.95737894026543       -1.29820470966057       -0.03821076054236
C           -1.56896071382175       -2.61451293921356       -0.06158385275909
H            3.68352309269941        1.19835945781588        1.07174198933102
H            3.97986369842039        1.01439003815632       -0.67679867104403
H            2.66260250659679        2.07747431601640       -0.09491628947792
H            4.38524577965810       -1.59279412009705        0.04627700773933
H           -1.70388666002495        3.09510922727537       -0.02537995753673
H           -2.87656548969701        2.11894638857896       -0.95090350500446
H           -2.92838814657361        2.10226435168776        0.81225956269934
H           -1.29857279623703       -3.17813679715207        0.83086930137125
H           -1.27277446803303       -3.15844036926901       -0.95830013350736
H           -2.65320901373883       -2.48226403924037       -0.07602493151249
H            1.31879117507425       -2.95379464186273       -0.01488601557055
25
 energy: 51.991795105688 xtb: 6.6.1 (8d0f1dd)
C            3.20411395026609        1.14662658800115        0.08550028153860
N            2.28527499387714        0.04538272059643        0.04135735514894
C            2.68200009704953       -1.26607171982748        0.13500913236736
N            1.42296084740090       -1.95134494779886       -0.00168251773656
C            0.36634984037885       -1.08485523484045       -0.02113195247712
C            0.89967505118449        0.20095574494582        0.00649193793221
C            0.09000542592984        1.38898656483683       -0.01656949654080
O            0.42943601929129        2.55122388003970       -0.00299696335623
N           -1.31123202421959        1.06484571068184       -0.03244221538180
C           -2.26548412578279        2.16551127914469       -0.04915178762487
C           -1.87085927675478       -0.18583903174600       -0.04875604583464
O           -3.06605920821254       -0.36217732716451       -0.06973606252176
N           -0.97859450957047       -1.29447825225671       -0.04404181428508
C           -1.57858670641748       -2.61679969383419       -0.06179447328480
H            3.67287173038969        1.19088651614570        1.06805402386607
H            3.97066779536087        0.99609791134605       -0.67314209563556
H            2.66201607989449        2.07344387828213       -0.10057250883981
H            4.77249777744340       -1.63460220891928        0.00109146097555
H           -1.70808527568224        3.09898465503880       -0.02534807536928
H           -2.87988331203058        2.12201808019663       -0.95033368433876
H           -2.93103300547856        2.10588798322379        0.81373488140101
H           -1.30100404746306       -3.17403497864770        0.83110951020373
H           -1.27696155527707       -3.15666814658705       -0.95766910335732
H           -2.66131047429676       -2.48780241476275       -0.07492678236332
H            1.28343858065559       -2.94714895392259       -0.02501910833845
25
 energy: 53.805836711117 xtb: 6.6.1 (8d0f1dd)
C            3.18995299461756        1.12969758140239        0.08690533500683
N            2.24332147645356        0.02615804994705        0.04847906056845
C            2.54880430795969       -1.23300719604386        0.16853972333223
N            1.36121004522883       -1.93322514241289       -0.00351319999829
C            0.31609990468328       -1.07022000735741       -0.03158189246271
C            0.87656737456801        0.20549210145246       -0.00394649559283
C            0.07711133159375        1.40542812735323       -0.01787912113116
O            0.42122599619429        2.54550687076040       -0.00246700078436
N           -1.31300867254073        1.07232889282226       -0.03141085196976
C           -2.26768200465446        2.17023222818448       -0.04958194437696
C           -1.88724056308495       -0.18515107793328       -0.04927032632577
O           -3.07614211351374       -0.35247660066339       -0.06982233591416
N           -1.00536175621364       -1.28703202154608       -0.04554919224090
C           -1.58664879280163       -2.61763966305455       -0.06166546945242
H            3.66595965775464        1.17400937942484        1.06297671920957
H            3.95855031543733        0.97999226510126       -0.66866726443035
H            2.66262837639203        2.06732500569648       -0.09766431119003
H            5.22817507897657       -1.69316814003623       -0.02856621455707
H           -1.71113246943000        3.10376753808708       -0.02553963782574
H           -2.87989588130839        2.12448319204342       -0.95143554197376
H           -2.93220661551929        2.10849938347162        0.81300083243288
H           -1.30111304011913       -3.17054382322765        0.83092478720674
H           -1.27687134341063       -3.15320221526962       -0.95673745499241
H           -2.66791662250484       -2.49328465599282       -0.07521327332687
H            1.26782768317814       -2.93494147003719       -0.01328103306384
25
 energy: 55.027058575188 xtb: 6.6.1 (8d0f1dd)
C            3.17848474225005        1.12248144165776        0.08698201934564
N            2.23388687737169        0.03092350164393        0.04467347032493
C            2.57680691776083       -1.26084794490166        0.18913796268475
N            1.34835097784161       -1.93552467396923        0.00504733951954
C            0.30321260648687       -1.06102863044695       -0.03770814338137
C            0.85606041788859        0.21605825236998       -0.01436734199174
C            0.06468155480303        1.40976706578185       -0.02697429975284
O            0.40260128704544        2.56767157892183       -0.00091216310631
N           -1.33436473898009        1.07751857289890       -0.03392235353824
C           -2.27930824218695        2.18040541350431       -0.04678179636381
C           -1.90927790200251       -0.17331048229104       -0.05221693725833
O           -3.10401078745793       -0.33732549209512       -0.06777875133343
N           -1.02760883089064       -1.27757075857418       -0.05158693525107
C           -1.59269992693961       -2.61534686043367       -0.06402431227697
H            3.65324544836960        1.15693605193750        1.06514370526088
H            3.94262126440178        0.95896391039747       -0.67113374651980
H            2.65792552471175        2.06121373805399       -0.09878921947916
H            5.49590812540248       -1.73735492604269       -0.03378858190118
H           -1.71623131253309        3.11100798970459       -0.02227850558025
H           -2.88993543407777        2.13585689790204       -0.94964550148762
H           -2.94050286501893        2.11790644104869        0.81816178604327
H           -1.29208174086837       -3.16322349767295        0.82797976967352
H           -1.27010338377973       -3.14826334489895       -0.95721908270362
H           -2.67609808829707       -2.51477651010097       -0.07605960961317
H            1.23065217663521       -2.93310913222342       -0.00490487516631
25
 energy: 53.180851288652 xtb: 6.6.1 (8d0f1dd)
C            3.17461237438334        1.11885924304814        0.09208383599143
N            2.21877523804392        0.03291757504867        0.05254431268291
C            2.51531923320946       -1.25377217334390        0.14681109057385
N            1.33483333475216       -1.92279486615189        0.01385754156384
C            0.29634446114170       -1.04583172833833       -0.03768626030976
C            0.84668343472292        0.22137613219523       -0.02190616013136
C            0.04846533538950        1.40145364438467       -0.02122192637407
O            0.41503835740094        2.55973702818975       -0.00184348329040
N           -1.33296494488117        1.07451192751805       -0.03346981761823
C           -2.27812916647790        2.18072444333411       -0.04807235485955
C           -1.90575002866726       -0.17549871369177       -0.05268920195356
O           -3.10368607251673       -0.33663468234574       -0.06897719756036
N           -1.03864880971006       -1.27160565381564       -0.04969671586421
C           -1.59136501583801       -2.61107650523635       -0.06427059020499
H            3.66152556540911        1.15895166727544        1.06578942518314
H            3.93838536172631        0.96435636957811       -0.67044180586508
H            2.65830257212769        2.05927532834315       -0.09118626905734
H            5.55577905109665       -1.77425369232485       -0.03082452727115
H           -1.71126426289245        3.10930033800152       -0.02314284198227
H           -2.88693891216857        2.13461914375821       -0.95119944586913
H           -2.93802503787078        2.11671614153771        0.81666435541742
H           -1.28945183883469       -3.16291817855749        0.82790231792537
H           -1.26640513812713       -3.14832177760194       -0.95702137597753
H           -2.67573970987637       -2.51274325959868       -0.07699087226360
H            1.26651928639362       -2.92831914903412        0.01202186326188
25
 energy: 52.783024966015 xtb: 6.6.1 (8d0f1dd)
C            3.17535736512004        1.12089486132863        0.08886796692974
N            2.22078010438562        0.03986276711869        0.05406423277864
C            2.51829543624852       -1.25692025155551        0.12222272309610
N            1.33538976312172       -1.92180161606388        0.00684292619952
C            0.29792110914883       -1.04341396210978       -0.03257237300096
C            0.84684295948768        0.22155052883949       -0.01394683855526
C            0.04099575546770        1.39785050363690       -0.01307351218184
O            0.41829346659251        2.55464620391596       -0.00119042863029
N           -1.33334130195077        1.07546391588959       -0.03130398453866
C           -2.27987932215750        2.18199033612355       -0.04956633060562
C           -1.90364895839836       -0.17559357376426       -0.04910467615837
O           -3.10330927154929       -0.33546752369214       -0.06930122913576
N           -1.04109749063964       -1.27131324601379       -0.04629685507581
C           -1.59139685853340       -2.61010239832253       -0.06314607397663
H            3.66143141002771        1.16044920074055        1.06335460111538
H            3.94045610344260        0.96386505927287       -0.67256980800313
H            2.65936170750424        2.06152315707483       -0.09503047578666
H            5.54810315328258       -1.78572311536395        0.00209470025262
H           -1.71300410751619        3.11031680012497       -0.02529582053889
H           -2.88767515772670        2.13388926587937       -0.95294908236685
H           -2.94079714362798        2.11829733401643        0.81416680919892
H           -1.28985918373776       -3.16310115325130        0.82904477343240
H           -1.26590045484576       -3.14717086331234       -0.95620690836464
H           -2.67631981219920       -2.51326786559275       -0.07606118000209
H            1.27521539698901       -2.92769576274759       -0.00600925993459
25
 energy: 52.327081485296 xtb: 6.6.1 (8d0f1dd)
C            3.17507220969993        1.12328223788927        0.08433260006410
N            2.22315549155108        0.05105482631336        0.04908133135099
C            2.53300667764118       -1.26110436541572        0.06024215523196
N            1.33656991070673       -1.92206848852387        0.00418804534225
C            0.29927576929165       -1.04210121590496       -0.01970977435337
C            0.84730766994638        0.22054625375554        0.00292855273539
C            0.02858195954714        1.39684753615163       -0.00849168829120
O            0.41996678372783        2.55105019619789       -0.00326644889611
N           -1.33294584695218        1.07874161039391       -0.03335489088775
C           -2.28151035912488        2.18426519574986       -0.04923421114486
C           -1.90144820305677       -0.17661726546671       -0.05070752670800
O           -3.10355770243133       -0.33251495765150       -0.07291766542744
N           -1.04436923599443       -1.27216908288529       -0.04207435835293
C           -1.59162727717320       -2.60997410532826       -0.06234345258000
H            3.65787969477492        1.15888325661699        1.06184257882073
H            3.94250234662585        0.96358549186531       -0.67353179143630
H            2.66023814112289        2.06523542229174       -0.09645313808405
H            5.53609213710653       -1.79996049871430        0.05360429128063
H           -1.71315074798942        3.11132832561879       -0.02469399472281
H           -2.88974084108215        2.13536456744545       -0.95189009958236
H           -2.94050510450269        2.11792570911145        0.81555442193736
H           -1.29083459884070       -3.16344034526657        0.82980428405307
H           -1.26446779008281       -3.14582136412380       -0.95549855521400
H           -2.67713191039349       -2.51565338689238       -0.07728904167791
H            1.28385549381815       -2.92765695105583       -0.01308772731011
25
 energy: 52.242687296060 xtb: 6.6.1 (8d0f1dd)
C            3.17472206858660        1.12201135546624        0.08211270643983
N            2.22154242037777        0.04943932566598        0.04231311205960
C            2.53568605141297       -1.25928496553360        0.04337959050031
N            1.33663818531273       -1.92176420166221        0.00054571336463
C            0.29842234255555       -1.04283087426491       -0.01400398239481
C            0.84748743694114        0.21972861742687        0.01027880829813
C            0.02870925499525        1.39903046745785       -0.00305761827952
O            0.41938583091148        2.55177117336201        0.00031089907487
N           -1.33199654567376        1.07960383928768       -0.03087756244299
C           -2.28178903012813        2.18390928578966       -0.05087196901076
C           -1.90231212860053       -0.17757801860575       -0.04766685575755
O           -3.10379229002299       -0.33157730953339       -0.07273369675860
N           -1.04386889200622       -1.27196881321833       -0.03889556392980
C           -1.59185450526784       -2.61004198432377       -0.06238541917975
H            3.65618701695257        1.15744134896402        1.06077287125677
H            3.94295989413792        0.96189023040908       -0.67387878459046
H            2.66178586892826        2.06509944823315       -0.09856021815286
H            5.54078644397488       -1.79916461305574        0.07067203211030
H           -1.71509461443557        3.11197266352546       -0.02645066724717
H           -2.88850758368854        2.13399981210860       -0.95450052720945
H           -2.94271552996597        2.11861717880214        0.81261557757351
H           -1.29026777448651       -3.16446901188200        0.82837185255810
H           -1.26481423587397       -3.14383854641043       -0.95658999978529
H           -2.67722499589953       -2.51590365138023       -0.07671065060332
H            1.28213997889866       -2.92706415445639       -0.01715575174643
25
 energy: 52.175383129119 xtb: 6.6.1 (8d0f1dd)
C            3.17369892284743        1.12080023118804        0.08258026528243
N            2.21928468269075        0.04519608445588        0.03515409119277
C            2.53740873306268       -1.25614466656659        0.02824413791536
N            1.33710981738545       -1.92132466864118       -0.00077568295145
C            0.29752001220318       -1.04404823624879       -0.01007240475887
C            0.84741223341504        0.21920153208940        0.01381279782313
C            0.03161629977019        1.40110717596741       -0.00563541760722
O            0.41817736877891        2.55280378539090       -0.00192691863394
N           -1.33099915034779        1.07950306094525       -0.03291707654502
C           -2.28091485071029        2.18333207154469       -0.04990619705273
C           -1.90369479179426       -0.17884595376207       -0.05048720752554
O           -3.10397502800652       -0.33118753294535       -0.07441396223291
N           -1.04256643519941       -1.27160222374035       -0.03876260798565
C           -1.59222219816453       -2.61048126835328       -0.06182858178739
H            3.65318581852131        1.15576548838500        1.06241101970714
H            3.94289211226144        0.96191856012845       -0.67179597399160
H            2.66146606874102        2.06436466953113       -0.09754399390023
H            5.54656720102884       -1.79522660579151        0.08115550059917
H           -1.71484755555964        3.11199011126389       -0.02474285902861
H           -2.88949288838402        2.13539066373859       -0.95251979774815
H           -2.94046620259534        2.11747908412783        0.81478968231155
H           -1.29103079125913       -3.16380958746095        0.82927573807610
H           -1.26469503155765       -3.14474642898615       -0.95542463084666
H           -2.67725316621297       -2.51588653412983       -0.07703678220915
H            1.27803348702152       -2.92652020995842       -0.01459924195525
25
 energy: 52.166323561084 xtb: 6.6.1 (8d0f1dd)
C            3.17397444112898        1.12063107400582        0.08231460747024
N            2.21927100936538        0.04398632172882        0.03586528053868
C            2.53741862807318       -1.25571167677238        0.02788773719010
N            1.33735298430922       -1.92121206959628        0.00001557032856
C            0.29758173608833       -1.04412393914820       -0.00858004863059
C            0.84710757042926        0.21969044636021        0.01597252459153
C            0.03276783024322        1.40114631974047       -0.00278196836990
O            0.41731218695807        2.55339281227809        0.00000370039333
N           -1.33140903332661        1.07920787613257       -0.03122865052286
C           -2.28096139297018        2.18315844877685       -0.05103444012192
C           -1.90399346687256       -0.17873062503586       -0.04865615874789
O           -3.10400929722205       -0.33141869729487       -0.07400249281039
N           -1.04222391774523       -1.27133183463961       -0.03801131847925
C           -1.59219084782805       -2.61044149574036       -0.06235094266689
H            3.65429764709880        1.15546714510806        1.06149580157943
H            3.94232588723537        0.96164084620446       -0.67302262353988
H            2.66138005650786        2.06394272361482       -0.09764113051549
H            5.54750864752896       -1.79410686477323        0.07801504075716
H           -1.71499240659670        3.11192117136395       -0.02623707839015
H           -2.88810624321061        2.13418585285732       -0.95454564687953
H           -2.94186580691013        2.11825922968126        0.81277146133835
H           -1.29073879134892       -3.16474317398528        0.82809558054884
H           -1.26490411493991       -3.14370899585732       -0.95664712822407
H           -2.67716049980587       -2.51561674047937       -0.07717578001270
H            1.27647186174640       -2.92645555235797       -0.01348800067743
25
 energy: 52.162753483692 xtb: 6.6.1 (8d0f1dd)
C            3.17401885627967        1.12076854692257        0.08262036832557
N            2.21948452901044        0.04365411619724        0.03642083032888
C            2.53726904812712       -1.25572364282478        0.02794015382747
N            1.33754018601781       -1.92121290138917       -0.00027685903769
C            0.29773973471531       -1.04416790588781       -0.00912299237754
C            0.84688913954969        0.21993755647605        0.01529459630720
C            0.03329382865990        1.40084090723343       -0.00375096935275
O            0.41706871723607        2.55344258399159       -0.00081813350308
N           -1.33166731090411        1.07905093200021       -0.03183272830222
C           -2.28095036797108        2.18321556545509       -0.05064279282324
C           -1.90389092128661       -0.17850993146756       -0.04938301170123
O           -3.10393428151415       -0.33161139860267       -0.07408825548839
N           -1.04211458200166       -1.27129580785967       -0.03875400147268
C           -1.59218102473786       -2.61045421803755       -0.06218615207423
H            3.65385308350345        1.15569806510632        1.06189315076357
H            3.94268743712282        0.96165176315324       -0.67245267572595
H            2.66124057434223        2.06382523429188       -0.09787965680890
H            5.54737669189697       -1.79400583730683        0.07842109928772
H           -1.71487367450366        3.11189383721242       -0.02573515639289
H           -2.88859944400610        2.13460424627763       -0.95383416642109
H           -2.94135860710689        2.11798525716561        0.81350119701810
H           -1.29067243139174       -3.16433246571047        0.82855138260257
H           -1.26499136515824       -3.14420291646265       -0.95624901035202
H           -2.67714849181828       -2.51552921829688       -0.07693431922236
H            1.27613534387511       -2.92649376546525       -0.01366800125755
25
 energy: 52.161729198993 xtb: 6.6.1 (8d0f1dd)
C            3.17400359612914        1.12100880997073        0.08251303502149
N            2.21981887119072        0.04373441614478        0.03681201181573
C            2.53726539536982       -1.25588738195738        0.02764934943256
N            1.33765586839991       -1.92130487808717       -0.00028811475374
C            0.29783942448417       -1.04428501006243       -0.00916435410200
C            0.84666974336607        0.22001851302020        0.01508773088031
C            0.03359253839685        1.40053353900500       -0.00380921688341
O            0.41695040901884        2.55337468418106       -0.00105546534427
N           -1.33193161644004        1.07898951712659       -0.03198701803394
C           -2.28093390791363        2.18332530888803       -0.05051693882623
C           -1.90372425245353       -0.17817909395707       -0.04953752040621
O           -3.10387687712958       -0.33184352699824       -0.07413109215415
N           -1.04210573260210       -1.27140579727773       -0.03897592713475
C           -1.59220927640017       -2.61048567099932       -0.06217905899828
H            3.65394929679324        1.15582527290001        1.06172173387039
H            3.94254602951080        0.96195167296667       -0.67269077637008
H            2.66094732329968        2.06390379909238       -0.09775223504592
H            5.54717824982795       -1.79425985239505        0.07913003052998
H           -1.71462490506741        3.11182655737053       -0.02556665622325
H           -2.88869943140714        2.13483709621289       -0.95363626307037
H           -2.94120497765602        2.11802720076688        0.81371533210137
H           -1.29092099048222       -3.16429084043890        0.82869578491950
H           -1.26486843334372       -3.14432364346001       -0.95613136873982
H           -2.67718837514452       -2.51551012290769       -0.07718569599785
H            1.27608669818911       -2.92655196693274       -0.01368341033978
