  72
        -99.29416922
 N         -1.7152000895        2.8287127984        2.4628184865
 C         -1.7122962425        2.2284309245        1.3690239817
 C         -2.8775036027        2.1633927269        0.4209403071
 C         -3.4250629559        0.7469733723        0.3909328967
 C         -4.4047799186        0.3955136968       -0.5399890687
 C         -4.9039239330       -0.8903572383       -0.6271854030
 O         -5.8608123554       -1.2937645313       -1.4725141205
 C         -6.5172710497       -0.3554674547       -2.2913017346
 C         -4.3850508725       -1.9573920751        0.2372492557
 O         -4.7604295488       -3.1325222598        0.1329844456
 C         -5.0712013619       -6.6059685912        1.8923661251
 C         -3.4155153691       -1.5299537820        1.2028004630
 C         -2.9662079235       -0.2378447147        1.2749144621
 C         -2.3145696986        2.5279360926       -0.9790842185
 C         -1.4496203400        1.4293152888       -1.6232666230
 C         -0.1232359149        1.2655416750       -0.9877128883
 N          0.4577350136        0.1096916583       -0.7058197305
 C          1.8381790728        0.0680436047       -0.2831459703
 C          2.7707776539       -0.3652171941       -1.4307817419
 C          4.2050396322       -0.2625135771       -0.9926484259
 C          4.8953903828        0.9323203286       -1.1250566704
 C          6.2108927408        1.0435698372       -0.7039275937
 C          6.8641507414       -0.0411443722       -0.1353824457
 O          8.1348435753       -0.0504459663        0.3030002934
 C          8.9166414118        1.1154668529        0.1771435254
 C          6.1620416901       -1.2710544086        0.0098336750
 O          6.8709059197       -2.2703792087        0.5671535868
 C          6.2770222234       -3.5373026420        0.7243955661
 C          4.8455059240       -1.3567568063       -0.4172142870
 C         -0.2238155210       -1.1535152055       -0.8630150225
 C         -4.0280030456        3.1437028125        0.8001365077
 C         -4.6863934323        2.7421162720        2.1173378702
 C         -3.5771603395        4.5999043010        0.8678092714
 H         -4.7896574888        1.1525733621       -1.2053985436
 H         -6.9846927178        0.4345679882       -1.6957778664
 H         -7.2875745999       -0.9128679172       -2.8205513048
 H         -5.8311971905        0.0913103347       -3.0183285768
 H         -5.3791539261       -6.2939727765        2.8675936731
 H         -5.7804614544       -6.6388605355        1.0932876808
 H         -4.0572051776       -6.8971838263        1.7184045112
 H         -3.0541168987       -2.2843776506        1.8843670887
 H         -2.2514797758        0.0256655017        2.0412022347
 H         -3.1502321375        2.7309727439       -1.6478707208
 H         -1.7273777726        3.4432218392       -0.8966430481
 H         -2.0034979767        0.4925129356       -1.6474241272
 H         -1.2725209812        1.7398155440       -2.6612796667
 H         -0.8261588578        1.7063403909        0.9548931017
 H          0.4880879043        2.1511247352       -0.8855131661
 H          1.9377542786       -0.6303981143        0.5519349220
 H          2.1413727482        1.0588724352        0.0616684604
 H          2.5986397732        0.2897774980       -2.2867976704
 H          2.5389010080       -1.3887340742       -1.7264997916
 H          4.4134218728        1.7877162899       -1.5736856459
 H          6.7238992528        1.9829433072       -0.8285198651
 H          8.4927589844        1.9456528178        0.7501731166
 H          9.0268538728        1.4120029617       -0.8701476381
 H          9.8925081303        0.8576521111        0.5839205550
 H          7.0459594764       -4.1667918799        1.1679236326
 H          5.4134317789       -3.4950816273        1.3956727448
 H          5.9738104080       -3.9603570958       -0.2381714874
 H          4.3077331279       -2.2866525371       -0.3184795320
 H         -0.4037449250       -1.3765773311       -1.9164714004
 H         -1.1820976131       -1.1418528538       -0.3378536190
 H          0.3876319064       -1.9465246673       -0.4409282587
 H         -4.7806315607        3.0610476091        0.0077754132
 H         -3.9729337806        2.8242662898        2.9311082330
 H         -5.0573018473        1.7207263366        2.0756611498
 H         -5.5239508383        3.4032939617        2.3231132082
 H         -2.8129389660        4.7246957844        1.6289485716
 H         -3.1948546522        4.9525097443       -0.0864792925
 H         -4.4261600121        5.2229811620        1.1359091141
 H         -0.8635733912        2.8271496757        3.0148182579
