25
 energy: 77.157300360927 xtb: 6.6.1 (8d0f1dd)
C            3.63234280827591        0.92668717536431        0.18520872211491
N            2.56970645622092       -0.03030867428508        0.13565057980783
C            2.78651031994034       -1.34709815961561       -0.02981123616993
N            1.61435789410788       -2.01648044407147       -0.09193334326586
C            0.56495128132464       -1.11464141995569       -0.01910277195101
C            1.16711055344347        0.18921607231007        0.11588258117045
C            0.47317758239564        1.33621070412280        0.11371771896084
O            0.33990626948443        2.48766230461285        0.42337010533974
N           -2.24919775906389        1.37447797912525       -0.06113019600764
C           -3.04774390382583        2.51813305012408       -0.29302314917772
C           -2.57262487796671        0.29029974922382        0.32197678739882
O           -3.05200724822757       -0.62641754432913        0.84198752893001
N           -0.69135235635438       -1.28819164950222       -0.02645501269911
C           -1.24071614887152       -2.60676834569751       -0.14359045222803
H            3.51585880334989        1.60390948747563        1.02502151085683
H            4.54719035052070        0.32090528974194        0.10203343852591
H            3.66788424696286        1.68801940100944       -0.59918866694231
H            3.72261981909902       -1.80391231657552       -0.12572597300514
H           -2.31639178256100        3.29244825093406       -0.51771850377013
H           -3.67734175707878        2.34101872880227       -1.15690217664230
H           -3.68770570896291        2.73402053132591        0.56395403810453
H           -0.51249885347958       -3.31416189590865        0.23430037251413
H           -1.50321658514729       -2.79416913406992       -1.18716547803254
H           -2.17358688116472       -2.72368128465694        0.43365781425667
H            1.50780399918058       -2.99878390257046       -0.20796673082573
