25
 energy: 75.198949549676 xtb: 6.6.1 (8d0f1dd)
C            3.55642412068876        0.98235126318591        0.17557144165788
N            2.48856290059556        0.03134478661965        0.12482246669514
C            2.71138306704898       -1.29379357726526       -0.02866724488237
N            1.52403443332126       -1.95257049944338       -0.10183333170233
C            0.48855470511445       -1.04897793956886       -0.02725452209644
C            1.07772352173993        0.24977475052631        0.10461283404252
C            0.36381237495995        1.40195416510489        0.08306657305077
O            0.34172513615703        2.57490469763546        0.30803781743218
N           -1.98018460624481        1.26996248088390       -0.07561417712085
C           -2.86604609108062        2.38309495656949       -0.27420822010228
C           -2.32968380483571        0.14388532725850        0.25614600491524
O           -3.10256019094964       -0.62011537008226        0.68087071308892
N           -0.78640157317946       -1.22950795924437       -0.02688952453408
C           -1.28109923492099       -2.57939034241008       -0.15149401139815
H            3.56616211446141        1.51688343417643        1.12518729022640
H            4.47405863899626        0.43867314331170       -0.07996405489860
H            3.47695048961963        1.82050061191043       -0.50671893043545
H            3.64896047062524       -1.72678957692615       -0.25639563675656
H           -2.21238005018102        3.19163516064776       -0.57129634350950
H           -3.52778220566068        2.17651741118452       -1.10823756219938
H           -3.47708422144767        2.62547561449214        0.59207203684358
H           -0.60127087609272       -3.26617331021192        0.36476093104671
H           -1.37155637253235       -2.78699633935861       -1.22177064637984
H           -2.26106970931235       -2.70574648807927        0.31579886127485
H            1.44392662009248       -2.93281699631291       -0.26810796055790
