25
 energy: 71.977846429205 xtb: 6.6.1 (8d0f1dd)
C            3.64664657618459        0.91851093613253        0.17212697119109
N            2.63790248331708       -0.08608185469331        0.13550694098147
C            2.88026059820631       -1.40115120454279       -0.03267161110324
N            1.70983195165581       -2.08076648592835       -0.08777501053182
C            0.64499844605067       -1.18897616885404       -0.01822596436260
C            1.24364145124948        0.11746685412080        0.12191650274164
C            0.57257365055814        1.26634644093193        0.12138221731684
O            0.40756151900455        2.41409389695571        0.42297109504316
N           -2.47968651568746        1.49372372914609       -0.03619519604262
C           -3.21792696540561        2.65409885951696       -0.30187280057561
C           -2.75926828549606        0.40723687493995        0.33617200727817
O           -3.05849971805703       -0.62114663796358        0.75405155653791
N           -0.60746680598252       -1.35482476896825       -0.03864158532557
C           -1.19604846044535       -2.64989979371662       -0.15592154428915
H            3.49987166106027        1.65320187735706        0.95720179581602
H            4.53845221292989        0.32178192727306        0.31190359288387
H            3.76022873181292        1.53843601720919       -0.71442185688079
H            3.82461181549654       -1.84875406890347       -0.14941928727914
H           -2.42534495720049        3.38242226903026       -0.44999144237866
H           -3.82449214637520        2.50274684384016       -1.19123679316409
H           -3.87584816911023        2.88906006449497        0.53481561222763
H           -0.44832706849662       -3.37241818793557        0.09372938413105
H           -1.55330808016449       -2.82673772753693       -1.17985212524975
H           -2.07645363045924       -2.74795735887507        0.51225247422973
H            1.61805694381489       -3.06358124474318       -0.21869772898486
