25
 energy: 68.255876354537 xtb: 6.6.1 (8d0f1dd)
C            3.67915993640736        0.89865975037883        0.16274431570649
N            2.68126934628680       -0.11610000109840        0.13369590582950
C            2.92782977339298       -1.43239197713322       -0.03490800893619
N            1.75489452586049       -2.11177675313468       -0.08590192979244
C            0.68702849675826       -1.22293071917266       -0.02179088480262
C            1.28892839518241        0.08470585780742        0.12393344693179
C            0.62598183390993        1.23179448853983        0.13248384385833
O            0.40455919633246        2.36867419384233        0.41931342950855
N           -2.60399937471895        1.53388110046125       -0.02114880223946
C           -3.30209985104660        2.71299444547311       -0.30736608133475
C           -2.85259486647516        0.44011376235964        0.34997770513760
O           -3.07776943569886       -0.62918617678647        0.71716067726957
N           -0.56388286281680       -1.39057229076192       -0.04263307428138
C           -1.16296610442102       -2.67866553380511       -0.15073498058631
H            3.52853706149302        1.61693535745912        0.97047667153026
H            4.57465245061428        0.33520265586940        0.39423483175398
H            3.80173748742639        1.46670619892391       -0.76219168994611
H            3.87695055747200       -1.87630258769340       -0.15159842004903
H           -2.50355656674635        3.43369479414122       -0.45059499265974
H           -3.89926135709820        2.58029938870389       -1.20760894403677
H           -3.96398093815013        2.96953596254441        0.51915865694166
H           -0.45674517207129       -3.41304045431346        0.16913183357582
H           -1.47988308186862       -2.85400669123787       -1.18644374255333
H           -2.04911350015969       -2.75531007574324        0.50160949545509
H            1.66708725844915       -3.09547792767398       -0.21723012918475
