25
 energy: 60.775774370076 xtb: 6.6.1 (8d0f1dd)
C            3.81384961446318        0.84237905055616        0.15274135535395
N            2.84555503364589       -0.20400920705085        0.08277376633037
C            3.09686496757382       -1.52798072747910       -0.04042972545494
N            1.91430511660758       -2.20248762543513       -0.09779703091716
C            0.82968960567759       -1.32602695639146       -0.03558245514992
C            1.45323269960605       -0.00182600044928        0.09019197186297
C            0.84124499523694        1.15625571194943        0.23538716136417
O            0.24504079273209        2.17185149287367        0.34327605107777
N           -3.03858942235497        1.68711970628104        0.00210176265559
C           -3.57351162185579        2.94848986360474       -0.32863818468009
C           -3.17365634774834        0.60092133965956        0.45297124928136
O           -3.12566352519540       -0.48524453236990        0.85705389135666
N           -0.41842366317758       -1.52816024714451       -0.07120457282832
C           -1.05368892657877       -2.80502384585795       -0.16840120335649
H            3.71218008902637        1.38737776737350        1.09569703682001
H            4.81522774765362        0.41852240985496        0.09236123651238
H            3.67439343672673        1.54892095281689       -0.67010169206831
H            4.06895378727994       -1.95875324315072       -0.09828532489208
H           -2.73906212436448        3.63916163328394       -0.45209471506644
H           -4.12872949769522        2.88933120598937       -1.26823236990868
H           -4.23590368054250        3.32035210210628        0.45725122919913
H           -0.48425874850372       -3.64213107555980        0.25705611930609
H           -1.27186410124902       -3.02532458474687       -1.21830757580437
H           -2.00579182199036       -2.71504108304229        0.35546941623352
H            1.85081989999940       -3.19964531892775       -0.19822348503251
