25
 energy: 76.112049403344 xtb: 6.6.1 (8d0f1dd)
C            3.63341602272904        0.92023418892208        0.19020153165452
N            2.59855930167589       -0.05758874388469        0.14053308462400
C            2.83086381192424       -1.37164768121064       -0.03098005782638
N            1.66121416974012       -2.04770173695659       -0.08985290304588
C            0.60289583120320       -1.15222432764616       -0.01537144911118
C            1.20096757382885        0.15471335498509        0.12292308837586
C            0.51910198127573        1.30378406744907        0.12315364693483
O            0.37560923973876        2.45838334988654        0.42172517993717
N           -2.35861770460503        1.44457895882256       -0.05666515751811
C           -3.12904510802796        2.59434178712755       -0.29594744661701
C           -2.65971022969888        0.36359722141793        0.32446466930674
O           -3.03021675934072       -0.59675213696452        0.83208274094238
N           -0.65004977361110       -1.32413505045555       -0.02952430602753
C           -1.22765779973311       -2.62689727687992       -0.15076524680864
H            3.49026208622043        1.66315482463886        0.96054975816221
H            4.53254833199247        0.30445893168519        0.22023684428901
H            3.72648837489237        1.59785320898425       -0.65227551662126
H            3.77107935167108       -1.82201092291209       -0.14015568471659
H           -2.34788987562463        3.33971030586194       -0.44625976148760
H           -3.74535393477182        2.43097905414619       -1.17505007115517
H           -3.78361888938411        2.80903347531447        0.54985712947105
H           -0.49725909450730       -3.35628724041612        0.14957066717582
H           -1.57326773895332       -2.80064684828721       -1.17807844113030
H           -2.13066873212083       -2.73024682688494        0.48416499029127
H            1.56239229237841       -3.02894928366289       -0.22135673366311
