25
 energy: 63.162853496483 xtb: 6.6.1 (8d0f1dd)
C            3.75394439742843        0.85732333427033        0.15263603917749
N            2.77792975674587       -0.17538953705555        0.12894244278673
C            3.03756955998931       -1.49405626698234       -0.03519486814137
N            1.86285109992756       -2.17653409289143       -0.08277665935176
C            0.78593800631649       -1.29926287176869       -0.03268129459855
C            1.38586157811132        0.02347132879900        0.11196583128257
C            0.74467732360167        1.17119028948264        0.16771124806529
O            0.34375600284891        2.26402565896402        0.38911891420704
N           -2.89062914326436        1.61650628087814       -0.01861323612000
C           -3.46823383506854        2.85429139099094       -0.32541122315366
C           -3.07541048467983        0.54829972334936        0.45399674894523
O           -3.19110844949796       -0.54346249240915        0.82915721306391
N           -0.46148398189833       -1.48643832331892       -0.06350974913215
C           -1.10576028766208       -2.75265423068204       -0.15431673092777
H            3.62175312172996        1.50399857152837        1.02595831919308
H            4.70534936189989        0.34690567512025        0.25067142670626
H            3.77845615824947        1.43690626691415       -0.78025602228184
H            3.99737384194892       -1.92539100545130       -0.14327789776335
H           -2.63847943775769        3.54386758614875       -0.45316628592591
H           -4.04403997356228        2.76125964186316       -1.24695203869674
H           -4.12733614517149        3.15968509346590        0.48642417981944
H           -0.47308799057949       -3.53903397854288        0.24100428640078
H           -1.35029604758387       -2.93148196473041       -1.20430115000223
H           -2.05846285094663       -2.72322960438466        0.40820300025235
H            1.77344430532304       -3.16184717968410       -0.21532965056225
