  72
        -99.26553953
 N         -1.8442912657        2.8398761864        2.3633184086
 C         -1.8346066165        2.0374505968        1.4070796935
 C         -3.0005944387        1.7858176378        0.4939311362
 C         -3.3894059266        0.3253395612        0.5733446525
 C         -4.2037820021       -0.2490848008       -0.4142200731
 C         -4.5800032185       -1.5186838905       -0.3134767660
 O         -4.9961634822        1.0296148275       -2.5776327984
 C         -6.2470340988        0.7283991171       -2.9734731836
 C         -4.2871475748       -2.4007051830        0.6943048414
 O         -4.7488636733       -3.6593137473        0.6743618505
 C         -4.5049863889       -4.5062353704        1.7745366916
 C         -3.4726154682       -1.8352814305        1.6936066385
 C         -3.0461316150       -0.5175112654        1.6253650164
 C         -2.5227949810        2.1462021777       -0.9363486260
 C         -1.5822921878        1.1190442642       -1.5908401294
 C         -0.2427747694        1.0404627431       -0.9803967736
 N          0.3951983965       -0.0741956513       -0.6701475761
 C          1.7859964408       -0.0418924287       -0.2803381548
 C          2.7136820707       -0.3973686671       -1.4587810576
 C          4.1491602145       -0.2629381153       -1.0341698014
 C          4.8053962806        0.9529267632       -1.1464431059
 C          6.1169573137        1.0942673735       -0.7218234769
 C          6.8001467492        0.0194766340       -0.1696166037
 O          8.0663255743        0.0410089209        0.2803204254
 C          8.8057208983        1.2386454625        0.2049704455
 C          6.1360864117       -1.2346136909       -0.0541075938
 O          6.8742920384       -2.2237036643        0.4834395495
 C          6.3182072278       -3.5103832512        0.6147032172
 C          4.8228893419       -1.3502924664       -0.4836610000
 C         -0.2251821958       -1.3719664832       -0.8010083332
 C         -4.2674405178        2.6276260627        0.8351034276
 C         -4.8057954551        2.3035539796        2.2262534497
 C         -4.0376846134        4.1306898579        0.7106255999
 H         -4.5412952335        0.3472534523       -1.3045367819
 H         -6.9942283498        0.9528496141       -2.1904846591
 H         -6.3502061387       -0.3369412840       -3.2525642922
 H         -6.5081504583        1.3315220912       -3.8610545112
 H         -4.9116979358       -4.0865908352        2.6993401372
 H         -5.0179088710       -5.4380750836        1.5451753710
 H         -3.4357334838       -4.7044270339        1.8997107471
 H         -3.1843448619       -2.4351132741        2.5435456171
 H         -2.4444282051       -0.1344969882        2.4372672292
 H         -3.3988568660        2.2243526429       -1.5799933557
 H         -2.0298873435        3.1181519738       -0.9047110960
 H         -2.0726054985        0.1497590807       -1.6339257248
 H         -1.4454883888        1.4606839806       -2.6245090992
 H         -0.9445712387        1.4538849422        1.1022143297
 H          0.3141275949        1.9609945081       -0.8737811837
 H          1.9476054761       -0.7491673124        0.5371865640
 H          2.0391284367        0.9582724344        0.0777118113
 H          2.5050399485        0.2834750934       -2.2857002746
 H          2.5115946912       -1.4163891818       -1.7903373713
 H          4.2990306954        1.8017747504       -1.5801552585
 H          6.6030186362        2.0499140953       -0.8294906111
 H          8.3374469769        2.0351643379        0.7910787685
 H          8.9278251309        1.5693438620       -0.8306026172
 H          9.7814326143        1.0059168728        0.6269990175
 H          7.1013262028       -4.1228345855        1.0572225695
 H          5.4464995904       -3.5053417192        1.2768172068
 H          6.0386166143       -3.9274205072       -0.3576264220
 H          4.3135289228       -2.2980981418       -0.4060930144
 H         -0.4086219160       -1.6189260940       -1.8483908395
 H         -1.1769653203       -1.3941365517       -0.2662277750
 H          0.4299091295       -2.1276872547       -0.3752910828
 H         -5.0248528134        2.3353706847        0.0991625444
 H         -4.0930355833        2.6135258858        2.9846061012
 H         -5.0032811588        1.2400694171        2.3378535041
 H         -5.7369096997        2.8393917097        2.3893289370
 H         -3.2280255337        4.4448820693        1.3628021050
 H         -3.8136617116        4.4216167333       -0.3115707047
 H         -4.9403365228        4.6545026635        1.0141496420
 H         -0.9914857031        2.9609817048        2.9000421096
