25
 energy: 0.000000000000 xtb: 6.6.1 (8d0f1dd)
C            3.23720163006194        1.16630919979326        0.08434469647475
N            2.29877817382611        0.07527477071623        0.03981603040599
C            2.58028210190900       -1.21425402444508        0.03006176031096
N            1.43813958087363       -1.93419271955128        0.00098261760884
C            0.39035688448383       -1.05887472636071       -0.00790371836672
C            0.93510056364412        0.21347819449412        0.01709077491437
C            0.09450143893243        1.40504303904423       -0.00410947031874
O            0.49712751527797        2.54126714362870       -0.00342325688240
N           -1.25076640035757        1.06271879480407       -0.03085478223738
C           -2.21907211982101        2.15522099834493       -0.05001256985998
C           -1.81739487048744       -0.20012725993278       -0.04692818574614
O           -2.99983886758376       -0.37846417018721       -0.07008878229737
N           -0.92618586207120       -1.30210215599479       -0.03682761578324
C           -1.46982264913417       -2.64643102187190       -0.06029820460571
H            3.71247264356769        1.21471455160235        1.06488849150277
H            4.00791497605742        1.03430808813993       -0.67357694370751
H            2.69910007168542        2.09770118228144       -0.09130154882931
H            3.56654120610678       -1.63682992603973        0.04233140067262
H           -1.67107961066214        3.09322851271934       -0.02552706933167
H           -2.82428953597071        2.09428624779827       -0.95318082946668
H           -2.87644029173232        2.07745725625962        0.81450067533302
H           -1.17061996399332       -3.19584890659852        0.83242232437030
H           -1.14560257411436       -3.17511610292205       -0.95688275822323
H           -2.55549792440841       -2.55659984320617       -0.07459039797972
H            1.38130855184625       -2.94313852034425       -0.01389874181052
25
 energy: -3.698997371340 xtb: 6.6.1 (8d0f1dd)
C            3.27514641976555        1.17428363605875        0.05210441235119
N            2.31656019296877        0.09284814055571        0.03119790143459
C            2.59336881712098       -1.23893442251607        0.04969369255235
N            1.41815649422735       -1.94349096270198        0.02512521255282
C            0.38969672505156       -1.05777373661432        0.00504192414298
C            0.93111114662997        0.22032605111152        0.02812345324600
C            0.09499741295309        1.39091955013174        0.00792578617911
O            0.48907243680314        2.55693073760257        0.01095462936408
N           -1.26824110579947        1.04701592108069       -0.02847745425811
C           -2.23033207160116        2.14304373226541       -0.05245249759676
C           -1.83212578143842       -0.20372618079570       -0.05258121002452
O           -3.02855134161429       -0.38579042647077       -0.08802919587711
N           -0.94239412597827       -1.30339526090052       -0.03493029568643
C           -1.48446155007688       -2.64517537502554       -0.06768536771078
H            3.80233631745898        1.16778128026807        1.00175592824193
H            4.08153474706238        1.18427941996751       -0.73305464328127
H            2.70275400197172        2.10110623403066       -0.02611227166693
H            3.56663559257891       -1.67166810055437        0.08459505093140
H           -1.67209337795363        3.07631758632069       -0.02935559680447
H           -2.83527567232627        2.08721765613850       -0.95718344296784
H           -2.89051822747084        2.07509792469415        0.81178411758002
H           -1.19223468530936       -3.20088568167527        0.82526980758635
H           -1.15065019575200       -3.17518130332291       -0.96202706286754
H           -2.57002344042764       -2.55437770415760       -0.09222194970763
H            1.34774593909201       -2.94774011331890        0.01757296843386
25
 energy: 2.627683322198 xtb: 6.6.1 (8d0f1dd)
C            3.32168490461974        1.18188099979912        0.01015719947553
N            2.34015252444893        0.11024405497680        0.01298168242631
C            2.59985473258431       -1.26212956845899        0.08154998040684
N            1.39371942582511       -1.94502542754591        0.06383683456497
C            0.38850395032037       -1.05262877961129        0.02524220388023
C            0.92928060695538        0.23147227750365        0.03404040419028
C            0.09588951550072        1.37090942342104        0.02118835554774
O            0.46447764417712        2.55850283379479        0.03650379397724
N           -1.29090136908444        1.03004327004293       -0.02622802129835
C           -2.24573914051709        2.12956482912191       -0.05591915379563
C           -1.84421640369967       -0.20829827202513       -0.06260155412167
O           -3.04646811045098       -0.39747143398460       -0.11792269177153
N           -0.95883395140716       -1.30204438659697       -0.03080855704288
C           -1.50105215317190       -2.64211548027476       -0.07921258428348
H            3.95494438800913        1.07424318081250        0.90069416388939
H            4.14186283766936        1.38952515891203       -0.83402528952841
H            2.71168789393823        2.10754443025940        0.08593181433077
H            3.55703534016916       -1.71070708145940        0.16041089827487
H           -1.67803032166417        3.05805244075533       -0.03592579583201
H           -2.85132778006035        2.07535918591500       -0.96130094465730
H           -2.90992270707393        2.07184471518624        0.80713054901559
H           -1.22664478118925       -3.20898651559456        0.81430477920744
H           -1.15683925083257       -3.17405282419999       -0.97057150365653
H           -2.58692163081619       -2.54954034851216       -0.12108298091092
H            1.31001850368624       -2.94715808006497        0.06866031385883
25
 energy: 10.193244330508 xtb: 6.6.1 (8d0f1dd)
C            3.35691071578530        1.18742370258268       -0.02093168705617
N            2.35450655108967        0.12250626541640       -0.00280158565913
C            2.59686338127766       -1.26699631793659        0.10547610293877
N            1.38195185524202       -1.93917448210908        0.09949323096164
C            0.38580448107931       -1.04669169028684        0.03940772263078
C            0.92930571456827        0.24146278458981        0.02933469004172
C            0.09061052776634        1.36695976885320        0.03064778806928
O            0.43599811730961        2.56063968688894        0.06390253546729
N           -1.30848044989838        1.02353743579845       -0.02301034137610
C           -2.26285782017510        2.12039254669414       -0.05619303272670
C           -1.85320049730830       -0.21383836968483       -0.07316767646703
O           -3.05492672248507       -0.41056296985039       -0.14548651055667
N           -0.96623300349812       -1.30123327054057       -0.02754493344858
C           -1.51091077654140       -2.64075669590083       -0.09154477023208
H            4.08882316561697        0.98380338820143        0.79521517899803
H            4.15898090766290        1.51852626467820       -0.91333112797871
H            2.75559206787961        2.11173013923512        0.18123111673716
H            3.54428961033918       -1.72934623508533        0.23801443613281
H           -1.69319426074576        3.04715102083970       -0.03909950467184
H           -2.86886737619376        2.06171331664016       -0.96136327865055
H           -2.92837664176331        2.06560564164220        0.80629533787496
H           -1.25716761240142       -3.21675308882461        0.80277422980264
H           -1.15843031307549       -3.17098593015234       -0.98105778643634
H           -2.59692199606231       -2.54405556874404       -0.15086018411609
H            1.29214504246760       -2.94202874077293        0.12163394586818
25
 energy: 13.336581173753 xtb: 6.6.1 (8d0f1dd)
C            3.38010353060874        1.18650608348896       -0.03857664979512
N            2.36055884741037        0.12913171972516       -0.01432298531031
C            2.59063038881947       -1.26017972652739        0.11636488760501
N            1.37981829233299       -1.93025706894595        0.12341393746563
C            0.38243300580720       -1.04096246801503        0.04443304631907
C            0.92983516621764        0.24825302552935        0.01535575537967
C            0.08374098604543        1.37222688605731        0.03549664315784
O            0.41343766476992        2.56211085226225        0.08613563905327
N           -1.31873890032816        1.02298541121318       -0.01845096004646
C           -2.27705982298079        2.11484949161801       -0.05199891852861
C           -1.85891761997448       -0.21830935332432       -0.08002842924209
O           -3.05717632611918       -0.41928488185794       -0.16415438028223
N           -0.96775849738532       -1.30083738936657       -0.02561339107546
C           -1.51484050051246       -2.64059969334399       -0.10156047256001
H            4.15175247683672        0.92863279002601        0.70869734797070
H            4.16925400391108        1.57480797630698       -0.94602050518992
H            2.81750333872943        2.10015899466029        0.22765744467153
H            3.53078957740814       -1.72908403312180        0.30122940133824
H           -1.71113074174722        3.04304649367992       -0.03746663895876
H           -2.88488447475636        2.05029333916869       -0.95565034071363
H           -2.94142702413457        2.05909312470142        0.81127226733705
H           -1.27718593554258       -3.22210691077232        0.79294277679996
H           -1.15661214014654       -3.16766382783338       -0.99000658701326
H           -2.60052413597205       -2.53962217110922       -0.17329330710617
H            1.28861350863860       -2.93416006204755        0.16117831487135
25
 energy: 13.287211167103 xtb: 6.6.1 (8d0f1dd)
C            3.38782330234942        1.18327319043448       -0.04167240119284
N            2.35895244058650        0.13172613031420       -0.01984875963852
C            2.58515811859331       -1.24610015695568        0.10954395418708
N            1.38407448032253       -1.92051672883718        0.13517776875694
C            0.37921086177931       -1.03624814411756        0.04424649726472
C            0.92909996662593        0.25166994253798        0.00011093015314
C            0.07959622069608        1.38088745907394        0.03531249233177
O            0.40200339274846        2.56348626213901        0.09679458854736
N           -1.32053746911402        1.02459222055368       -0.01697383279031
C           -2.28381138403815        2.11245139231937       -0.05307536083649
C           -1.86094643962683       -0.22075599282044       -0.08281527020450
O           -3.05560259353026       -0.42123125778621       -0.17544448666938
N           -0.96586783567342       -1.30087954830007       -0.02248200606468
C           -1.51340594701052       -2.64144838126492       -0.10325935671734
H            4.18244031194966        0.86717652330650        0.64057883563848
H            4.14860007346988        1.59558652366252       -0.96595791663104
H            2.85932894570544        2.08626981353601        0.29125044620963
H            3.51854334307216       -1.71119549448781        0.33891389854744
H           -1.72421469952575        3.04414062971566       -0.04191078753041
H           -2.89318118271966        2.04151427016626       -0.95523065404375
H           -2.94669313571127        2.05671820636534        0.81141689218031
H           -1.28402379724428       -3.22236281767096        0.79208725308524
H           -1.15069983893885       -3.16708619305546       -0.98973600843061
H           -2.59831588693187       -2.53802657988315       -0.18147129138684
H            1.29468342010223       -2.92461266677349        0.18147847138189
25
 energy: 11.778342041174 xtb: 6.6.1 (8d0f1dd)
C            3.38450271572570        1.18148229465391       -0.03593435499341
N            2.35324109354691        0.13377761957111       -0.02165713115811
C            2.58325483762569       -1.23515887203903        0.09738624546145
N            1.38732852495510       -1.91412180703884        0.13591483510868
C            0.37724294771500       -1.03311311224250        0.04178759473984
C            0.92645461918291        0.25361574942590       -0.01016590203249
C            0.07816874188760        1.38605247073239        0.03136506768957
O            0.39960467359161        2.56642974718575        0.10029615016986
N           -1.31842293931374        1.02493974187008       -0.01922673199664
C           -2.28419314822149        2.11169998490829       -0.05597481091982
C           -1.86079446386304       -0.22116590581475       -0.08350832045772
O           -3.05395706141480       -0.41964761991101       -0.17834887628345
N           -0.96441317119272       -1.30082542542851       -0.02032796121180
C           -1.51021626827778       -2.64242929008659       -0.09989405388057
H            4.19092830113814        0.82690921024223        0.60202753486977
H            4.11916908180731        1.59545065758662       -0.96592956552531
H            2.88045876706330        2.07405054413806        0.33468060402155
H            3.51254959140453       -1.69227206205149        0.35609154982514
H           -1.72778526527179        3.04551657294952       -0.04672328809051
H           -2.89422203193881        2.03820792819230       -0.95733709182854
H           -2.94586249058103        2.05660277310063        0.80957233701615
H           -1.28065644434125       -3.22068370219831        0.79643920890698
H           -1.14506731576083       -3.16835445372969       -0.98482642369991
H           -2.59469037149970       -2.54003880821838       -0.17930014676538
H            1.29959174396917       -2.91789563362563        0.18062742718197
25
 energy: 10.595699056045 xtb: 6.6.1 (8d0f1dd)
C            3.38077330321677        1.18111962872785       -0.03149519003284
N            2.34888394796916        0.13601111038196       -0.02533129144480
C            2.58456786897497       -1.23142947905285        0.08483962140774
N            1.38823877639888       -1.91207839489159        0.13398753204057
C            0.37716498554933       -1.03166843026075        0.04049802582445
C            0.92430066312221        0.25492616314039       -0.01401124307903
C            0.07772353094272        1.38749167019491        0.02902623193745
O            0.40099379830915        2.56865143058703        0.09853135084514
N           -1.31694411933242        1.02494602452630       -0.02235308838277
C           -2.28310503007991        2.11203425276203       -0.05991223422652
C           -1.86013739255522       -0.22051239043502       -0.08334797684193
O           -3.05352823461447       -0.41849970050824       -0.17774904914886
N           -0.96379881524352       -1.30054583162961       -0.01857829691009
C           -1.50779375155144       -2.64277908409715       -0.09553273848646
H            4.19560756284879        0.80008424205182        0.58053223479353
H            4.09371335816322        1.60002955307985       -0.96435684205575
H            2.88715457967136        2.06834905215093        0.37193393990482
H            3.51121539039410       -1.68200133092749        0.36460585842307
H           -1.72677920706629        3.04613114763437       -0.05104142851430
H           -2.89272283899913        2.03806440170434       -0.96134983509718
H           -2.94442802521081        2.05753622572340        0.80588302992256
H           -1.27553437322696       -3.21904089009964        0.80171010055974
H           -1.14185590578234       -3.16971540002360       -0.97968361026929
H           -2.59225898818045       -2.54230575095635       -0.17428153835229
H            1.30076358421829       -2.91576961761084        0.17451033333033
25
 energy: 9.129320102367 xtb: 6.6.1 (8d0f1dd)
C            3.37741810443905        1.18086240392224       -0.02626838039363
N            2.34490002701776        0.13783368390046       -0.02944639735381
C            2.58782881970576       -1.23144197975885        0.07043264934858
N            1.38849597217074       -1.91215036148859        0.13049111637131
C            0.37832038038112       -1.03111740502797        0.03978026606103
C            0.92294357854644        0.25553428810067       -0.01427444962866
C            0.07716334951448        1.38728390851605        0.02776694970031
O            0.40429985626518        2.56968457328544        0.09444227499511
N           -1.31560880684920        1.02528445513425       -0.02520314043434
C           -2.28152009321657        2.11312649460315       -0.06238295009061
C           -1.85893316095349       -0.21926391966615       -0.08241882288841
O           -3.05303716318379       -0.41777449776679       -0.17417939817025
N           -0.96299440710246       -1.29997681695438       -0.01732004936562
C           -1.50564629520827       -2.64251945046852       -0.09181596777290
H            4.18847955037572        0.79314550918280        0.56860427846003
H            4.07249751667320        1.60076490476718       -0.95066869323646
H            2.89275369296774        2.05755336934032        0.38700843179557
H            3.51144063800390       -1.67483440761395        0.37110391354523
H           -1.72388000206128        3.04660493479084       -0.05266854513135
H           -2.89035228405593        2.04011332645095       -0.96421580041660
H           -2.94281357489992        2.05832746698322        0.80326002994686
H           -1.26960188310329       -3.21777793505919        0.80581586297834
H           -1.14020618962262       -3.17018011296221       -0.97604523647151
H           -2.59032402507263       -2.54412390577245       -0.16872149029695
H            1.30059106720431       -2.91592992426646        0.16395744459604
25
 energy: 8.813331215296 xtb: 6.6.1 (8d0f1dd)
C            3.37770977850069        1.18186025742153       -0.02542477283628
N            2.34372594180607        0.13922402679792       -0.03249209877682
C            2.58999556761458       -1.23373358666556        0.06148868307438
N            1.38792712138764       -1.91328059142541        0.12992426894348
C            0.37923936225482       -1.03150071276662        0.04136356571776
C            0.92256177344727        0.25555516661310       -0.01089523442046
C            0.07606879231884        1.38637678750401        0.02792134516119
O            0.40510041421893        2.56938617977524        0.09025987683413
N           -1.31651139401157        1.02571047964625       -0.02655824918885
C           -2.28181298322970        2.11385372545424       -0.06481868472911
C           -1.85881305984665       -0.21883277476189       -0.08200396734547
O           -3.05349775539523       -0.41861457698189       -0.17250545961096
N           -0.96293182392908       -1.29971777896837       -0.01614076584266
C           -1.50530716590535       -2.64218227872873       -0.09009122400693
H            4.19856820855687        0.78283504878885        0.56321565055610
H            4.06122160907170        1.61130759191669       -0.95046416253068
H            2.89299102645950        2.05698372487562        0.40342277610721
H            3.51139300474611       -1.67387866445091        0.37529607745962
H           -1.72306413750537        3.04667670880138       -0.05483674936056
H           -2.88963773362418        2.04085273063734       -0.96729526521258
H           -2.94380443509417        2.05917780537530        0.80020667617468
H           -1.26831444125747       -3.21734673454977        0.80761521974405
H           -1.14030733654129       -3.17019333594567       -0.97447881570324
H           -2.59015589881302       -2.54429511564021       -0.16638129525875
H            1.29987023270606       -2.91719548055038        0.16070650119806
25
 energy: 8.883796166584 xtb: 6.6.1 (8d0f1dd)
C            3.37979290488917        1.18177978584032       -0.02764936877497
N            2.34476482077141        0.13839841957551       -0.03445050245696
C            2.59120370522375       -1.23702712256639        0.05690174465599
N            1.38763805735519       -1.91491906369387        0.12980685997574
C            0.38002352610969       -1.03242256096269        0.04307019949107
C            0.92387485852314        0.25455605377450       -0.00741952208990
C            0.07569890336515        1.38541624054073        0.02802914486138
O            0.40546135537396        2.56809611535901        0.08794574100479
N           -1.31691237054746        1.02621618442942       -0.02618628673598
C           -2.28202433528074        2.11421372909402       -0.06462680286033
C           -1.85857036768854       -0.21879395119409       -0.08145801385998
O           -3.05334244529497       -0.41924496229508       -0.17125213636314
N           -0.96264471210372       -1.29951496153818       -0.01567566798320
C           -1.50589790485204       -2.64165653243069       -0.09041263702144
H            4.19785059073012        0.78896358699206        0.56739448303563
H            4.06325118116793        1.61547029806947       -0.94906910851065
H            2.89077857618498        2.05731165742453        0.40120444787494
H            3.51101640331398       -1.67622994672614        0.37736658191365
H           -1.72307737351640        3.04681267356324       -0.05452604016516
H           -2.88961302329263        2.04127330843046       -0.96732905968620
H           -2.94452523048835        2.05929967942904        0.79997961817702
H           -1.26957906371975       -3.21759556613981        0.80684012738895
H           -1.14162689098150       -3.16935065281672       -0.97527549833151
H           -2.59082053338142       -2.54308952827458       -0.16655309931203
H            1.29949403607505       -2.91893428171195        0.16037869191960
25
 energy: 8.683988204429 xtb: 6.6.1 (8d0f1dd)
C            3.38177227961250        1.18222232155520       -0.03009147227287
N            2.34548942266472        0.13760588640844       -0.03672555963427
C            2.59265301799161       -1.24033807862840        0.04808743976349
N            1.38758837675730       -1.91625139221409        0.12937747612173
C            0.38072334346788       -1.03311383810496        0.04564755604472
C            0.92547581108249        0.25349527575437       -0.00303596000979
C            0.07505616838769        1.38467496933749        0.02781119840408
O            0.40549395778049        2.56683120900782        0.08625490377635
N           -1.31696410607228        1.02678006736935       -0.02546836853683
C           -2.28220110687813        2.11434633668075       -0.06402601944181
C           -1.85827408738417       -0.21892801185809       -0.08078564079329
O           -3.05302717398735       -0.41966441199643       -0.17041102068964
N           -0.96214159744107       -1.29912899021686       -0.01478065466579
C           -1.50638194470556       -2.64106063430777       -0.09097883073282
H            4.19884595240669        0.79525789780710        0.57260608876165
H            4.06330827078676        1.61735316930369       -0.94556397257667
H            2.88947071852632        2.05633886618736        0.39397298282071
H            3.50919183247294       -1.67665221093265        0.38424937191064
H           -1.72357467318680        3.04701722509979       -0.05380755162691
H           -2.88968786390828        2.04138100748093       -0.96689202014819
H           -2.94516348768108        2.05896071611846        0.80020989916884
H           -1.27118276231671       -3.21804283702131        0.80560614082834
H           -1.14262917953374       -3.16804718479724       -0.97642614348949
H           -2.59134756917789       -2.54165335535886       -0.16729259309972
H            1.29972106827162       -2.92035540050202        0.15949664626486
25
 energy: 8.510192197846 xtb: 6.6.1 (8d0f1dd)
C            3.38376154852393        1.18266289993465       -0.03256195065960
N            2.34622006792766        0.13680005667942       -0.03903072324779
C            2.59411613655866       -1.24367666168601        0.03916220094477
N            1.38753946231086       -1.91759279776815        0.12893536596585
C            0.38142773183347       -1.03380737017424        0.04824675976159
C            0.92709270350149        0.25242557815066        0.00137407564774
C            0.07441608608121        1.38392865775249        0.02759223950394
O            0.40553258609854        2.56555744146169        0.08456153486249
N           -1.31700548181355        1.02734641220314       -0.02474153088466
C           -2.28237098492922        2.11447817082224       -0.06342323949935
C           -1.85797155375850       -0.21906324596867       -0.08010609923646
O           -3.05270517136603       -0.42007837840812       -0.16957110412018
N           -0.96163221776986       -1.29873886564936       -0.01387182258471
C           -1.50686613237167       -2.64046046990408       -0.09154196462223
H            4.19981813677101        0.80159197147049        0.57786948632062
H            4.06335469207485        1.61923670902435       -0.94204681954427
H            2.88812947402749        2.05536684897802        0.38671400863317
H            3.50733605490404       -1.67705958785058        0.39121619077821
H           -1.72407276897545        3.04722518967709       -0.05308756968445
H           -2.88975659305378        2.04148379424396       -0.96645332434449
H           -2.94579782346234        2.05862014741094        0.80044030261505
H           -1.27279639653286       -3.21849237995883        0.80437136758173
H           -1.14363137748507       -3.16673352795241       -0.97757643631838
H           -2.59187470560251       -2.54020654624742       -0.16803651057687
H            1.29995119444358       -2.92178544406918        0.15859945885560
25
 energy: 8.483138211119 xtb: 6.6.1 (8d0f1dd)
C            3.38223290692411        1.18189584324668       -0.03173228137189
N            2.34573241043412        0.13684995899812       -0.03844929204743
C            2.59320811088297       -1.24124026811259        0.04195651025128
N            1.38775083355252       -1.91632591237721        0.12900282402674
C            0.38078812437810       -1.03297674699144        0.04670247179224
C            0.92630356015263        0.25316349332515       -0.00257494351097
C            0.07530803080574        1.38471418088583        0.02760223505632
O            0.40566676141036        2.56655871469481        0.08677052160920
N           -1.31614493428427        1.02683156388675       -0.02502313727205
C           -2.28177367773270        2.11412601576153       -0.06374114105654
C           -1.85792819133116       -0.21905441334763       -0.08067158506769
O           -3.05255261600633       -0.41914919330181       -0.17106435534326
N           -0.96176774246560       -1.29890360173291       -0.01399868794412
C           -1.50629095210782       -2.64089868142981       -0.09086680882048
H            4.19690460962407        0.79645699966620        0.57365586807663
H            4.06230501546687        1.61682281432573       -0.94533319044285
H            2.88870824216830        2.05566669004531        0.39360388191005
H            3.50699363365285       -1.67493748242995        0.39007199541564
H           -1.72382621833304        3.04718528790319       -0.05364265294459
H           -2.88945921145932        2.04089721729328       -0.96649100604780
H           -2.94471452861215        2.05861323558556        0.80054485716374
H           -1.27171042363164       -3.21815188091486        0.80554508995128
H           -1.14228616978156       -3.16754512221131       -0.97636123791442
H           -2.59119832519561       -2.54117123522122       -0.16767697844613
H            1.29996541942453       -2.92039887537531        0.15920493912445
25
 energy: 8.395125977204 xtb: 6.6.1 (8d0f1dd)
C            3.38156118622142        1.18161815644851       -0.03190068406870
N            2.34559825268016        0.13657768962486       -0.03862785000758
C            2.59318093523610       -1.24076014322712        0.03997606719918
N            1.38778300940104       -1.91579012583822        0.12880539950490
C            0.38051772065412       -1.03248445296194        0.04659912744538
C            0.92625898533537        0.25339962162380       -0.00396882175689
C            0.07574743017905        1.38505688437654        0.02786564611609
O            0.40558696845422        2.56687884463605        0.08836613760498
N           -1.31553153921698        1.02659536232147       -0.02476653778380
C           -2.28140908753810        2.11386148668140       -0.06360801726391
C           -1.85780056231808       -0.21916770990116       -0.08092867600540
O           -3.05232713384476       -0.41860004564993       -0.17231611682662
N           -0.96168779045095       -1.29888665256793       -0.01368385363951
C           -1.50597896882070       -2.64103795320341       -0.09066459487842
H            4.19624754164155        0.79499350497878        0.57287616155194
H            4.06165491314464        1.61522445306202       -0.94667809242819
H            2.88863146743033        2.05540366470665        0.39409471242645
H            3.50529993953153       -1.67289298980331        0.39349053924978
H           -1.72383161142802        3.04717914806309       -0.05363158415496
H           -2.88925668896783        2.04037074989000       -0.96620893099953
H           -2.94413256407595        2.05842361734435        0.80087481453405
H           -1.27150105603551       -3.21813627528627        0.80586198551258
H           -1.14145599434103       -3.16762463115789       -0.97595671756723
H           -2.59080341085479       -2.54139620236970       -0.16790314428899
H            1.29986272591910       -2.91977739961855        0.15906692667171
25
 energy: 8.102251590612 xtb: 6.6.1 (8d0f1dd)
C            3.38021803810597        1.18092530270636       -0.03354521814348
N            2.34556070811838        0.13537707596201       -0.04052595348938
C            2.59433018415208       -1.24159547778126        0.02868028407899
N            1.38765772775619       -1.91514752865331        0.12737936678528
C            0.38028229678287       -1.03145874490816        0.04690665035203
C            0.92681377420624        0.25358764626933       -0.00645964515604
C            0.07671526184986        1.38557198801994        0.02877249840913
O            0.40543382363610        2.56714489989231        0.09206817657008
N           -1.31400078620193        1.02622327446015       -0.02369505580069
C           -2.28050308982258        2.11335009670549       -0.06281628459448
C           -1.85721665245929       -0.21948154712738       -0.08133288169442
O           -3.05150616035211       -0.41743233530134       -0.17514434861219
N           -0.96117017110516       -1.29870091630933       -0.01248388892210
C           -1.50522725583334       -2.64114085559923       -0.09022087177731
H            4.19430583793701        0.79441505029272        0.57315767827362
H            4.06093983494238        1.61141737123439       -0.94899154936648
H            2.88729276867615        2.05480649086555        0.39214715189673
H            3.49923890338768       -1.66716202017480        0.40951835515390
H           -1.72381117141742        3.04723843142153       -0.05316659826036
H           -2.88868043075552        2.03911772791719       -0.96508294373111
H           -2.94279488717885        2.05796060950786        0.80204582590322
H           -1.27119957587212       -3.21824231513336        0.80632286060944
H           -1.13971248802112       -3.16734527808838       -0.97524960348829
H           -2.58985576011768       -2.54145799815630       -0.16845326712081
H            1.29910393752220       -2.91894234584992        0.15720315827202
25
 energy: 8.151235854039 xtb: 6.6.1 (8d0f1dd)
C            3.38027535416308        1.18104206086154       -0.03329479687856
N            2.34560604399656        0.13544986887891       -0.04004260567227
C            2.59474346211978       -1.24217641503721        0.02868796546400
N            1.38759785559016       -1.91552042440429        0.12741017764284
C            0.38053359690706       -1.03172098411403        0.04695844033153
C            0.92686589641817        0.25341740198541       -0.00568122530669
C            0.07651157656371        1.38536661032710        0.02890542807992
O            0.40547754700398        2.56689621939244        0.09149430034154
N           -1.31431804620607        1.02635699932636       -0.02375170548765
C           -2.28068422791413        2.11352901166005       -0.06283824523611
C           -1.85720610350991       -0.21942840593736       -0.08117452455438
O           -3.05155367931239       -0.41779597400572       -0.17454270346947
N           -0.96109737331682       -1.29872113770698       -0.01259153419637
C           -1.50530677303395       -2.64105239064783       -0.09032276723489
H            4.19471268651868        0.79558785385429        0.57398679035570
H            4.06181121571270        1.61160753233948       -0.94854827344584
H            2.88701434134319        2.05512183992876        0.39082872027629
H            3.49916282255586       -1.66747056183612        0.40904840901250
H           -1.72374703583337        3.04724214698979       -0.05315689922252
H           -2.88873412108744        2.03939652028578       -0.96519073471890
H           -2.94309415383021        2.05812491452417        0.80190785148746
H           -1.27117651088938       -3.21825293216230        0.80615695561273
H           -1.14010219511282       -3.16729135606988       -0.97547285086216
H           -2.58998807445844       -2.54134113825193       -0.16827759113448
H            1.29891056354796       -2.91933865800835        0.15653531496308
25
 energy: 8.269904494197 xtb: 6.6.1 (8d0f1dd)
C            3.38034953247827        1.18124829914914       -0.03274941901505
N            2.34551417565865        0.13582376759957       -0.03961464498772
C            2.59588112762625       -1.24347760883403        0.02724318986550
N            1.38748654877550       -1.91637254407925        0.12675376980499
C            0.38116521177241       -1.03235922124282        0.04621010749405
C            0.92693889017695        0.25301013681692       -0.00467191541019
C            0.07593089555937        1.38492642609414        0.02878472116944
O            0.40561067621275        2.56635124323398        0.08985109991462
N           -1.31507957291038        1.02672203013282       -0.02405613517165
C           -2.28113987854707        2.11398932959929       -0.06278163696990
C           -1.85718539556593       -0.21924376230672       -0.08066669477666
O           -3.05168700260241       -0.41868861620134       -0.17243674678039
N           -0.96087956761244       -1.29874703286015       -0.01307156394347
C           -1.50545172359557       -2.64083455506570       -0.09044810517445
H            4.19508277943333        0.79715919704029        0.57468064893083
H            4.06375349861306        1.61264418997827       -0.94778246794936
H            2.88680916358079        2.05596373508018        0.38936454328375
H            3.49932064309863       -1.66821287611845        0.41212052897698
H           -1.72363699469951        3.04730690217812       -0.05305306787856
H           -2.88904120966321        2.04014240662006       -0.96525165625087
H           -2.94367578250761        2.05850011011868        0.80179339706484
H           -1.27082204494163       -3.21819215186486        0.80586593216622
H           -1.14118616414825       -3.16722278052159       -0.97592869634399
H           -2.59027859912854       -2.54111583135711       -0.16748965473692
H            1.29843546087254       -2.92029219101733        0.15436836286528
