  72
        -99.37692996
 N         -1.9877743527        2.3652415472        2.6433865527
 C         -1.9383780279        1.4853714691        1.7549563533
 C         -2.9055416020        1.4105063676        0.6072094617
 C         -3.3323056162       -0.1003882071        0.4462032814
 C         -4.3127239630       -0.2936931469       -0.6558166892
 C         -5.4584287612       -1.0137725743       -0.5250764762
 O         -6.3761762360       -1.2240278276       -1.4929709804
 C         -6.1871936566       -0.6244973865       -2.7534939603
 C         -5.7779693232       -1.6514039519        0.7265703510
 O         -6.9064819785       -2.3576737497        0.7358907632
 C         -7.3155079707       -3.0216397708        1.9119860685
 C         -4.9054574428       -1.4828115132        1.8149741679
 C         -3.7793032424       -0.7249525106        1.7137564333
 C         -2.0740813211        1.8247930456       -0.6526582696
 C         -1.0994544543        0.7952180896       -1.1246619958
 C          0.1934832421        0.7894333479       -0.7463021517
 N          1.1284413088       -0.1291933196       -1.0898531365
 C          2.4822489428       -0.0419260238       -0.6108608417
 C          3.4940055570        0.3208863014       -1.7163799822
 C          4.8924462094        0.2970312799       -1.1687849011
 C          5.6199377722        1.4634412021       -0.9923777532
 C          6.9046847482        1.4294853512       -0.4715817015
 C          7.4854294179        0.2255588743       -0.0979904822
 O          8.7166129265        0.0726627075        0.4226039378
 C          9.5364582202        1.2049532468        0.5986568575
 C          6.7434746911       -0.9776601940       -0.2651167196
 O          7.3747500569       -2.1005077738        0.1319456923
 C          6.7118331059       -3.3376605720        0.0286478701
 C          5.4685334405       -0.9189852056       -0.8037619676
 C          0.7936576354       -1.2140840646       -1.9767160789
 C         -4.1377889436        2.3383488635        0.7496196351
 C         -4.9052457083        2.1180687469        2.0510833187
 C         -3.7790189734        3.8221539179        0.6485377282
 H         -4.0612889353        0.1520212636       -1.6033458493
 H         -6.1353525793        0.4655726080       -2.6745216840
 H         -7.0581871643       -0.9022384142       -3.3432994958
 H         -5.2836938507       -1.0002725524       -3.2435850984
 H         -7.5133694631       -2.3122622488        2.7204928271
 H         -8.2368425381       -3.5386550983        1.6506236669
 H         -6.5699770073       -3.7521304583        2.2382823733
 H         -5.1470930891       -1.9418083115        2.7610583236
 H         -3.1447627808       -0.5970621706        2.5770011425
 H         -2.7742760406        2.0526746626       -1.4573300386
 H         -1.5394160781        2.7411539810       -0.4005792722
 H         -1.4688334833        0.0579570560       -1.8202824122
 H         -2.3876914637       -0.5843705214        0.1608736766
 H         -1.1535755798        0.7145001325        1.7002458591
 H          0.5536763532        1.5674586895       -0.0854820479
 H          2.7660797834       -1.0057039770       -0.1726499640
 H          2.5347119110        0.7129304630        0.1760513966
 H          3.2584013477        1.3110327533       -2.1075762767
 H          3.4082810021       -0.3977366595       -2.5337977259
 H          5.1915844766        2.4136078440       -1.2721362226
 H          7.4485999647        2.3529427831       -0.3583175496
 H          9.0884238050        1.9199044806        1.2953226081
 H          9.7414485689        1.7019918989       -0.3541711511
 H         10.4677759965        0.8283056485        1.0173340063
 H          7.4063899858       -4.0757904978        0.4250801405
 H          5.7927592103       -3.3505097219        0.6235942920
 H          6.4786522903       -3.5835755712       -1.0120170772
 H          4.9106195937       -1.8296727795       -0.9565837103
 H          0.5304473879       -0.8437181598       -2.9709605401
 H         -0.0536722635       -1.7826791871       -1.5845807033
 H          1.6424823474       -1.8860539280       -2.0682350323
 H         -4.8079670384        2.0893996903       -0.0832544935
 H         -4.2895746815        2.4063375805        2.8976493904
 H         -5.2053168026        1.0813791769        2.1661030346
 H         -5.8015272942        2.7331996079        2.0516756132
 H         -3.0478493288        4.0806619839        1.4082357990
 H         -3.3906420777        4.0862178968       -0.3309215650
 H         -4.6732297204        4.4159159765        0.8203241812
 H         -1.2644291432        2.3529611023        3.3559913629
