  25
        -42.09825171
 C          3.7849883905       -0.0841015842        0.5414431122
 N          2.4858905705       -0.0900445230        0.2146092624
 C          1.9512339759       -1.2498202598       -0.2425368701
 N          0.6506964081       -1.4808949433       -0.5668231440
 C         -0.4026425342       -0.6777339693       -0.8465101213
 C          1.7717511396        1.0694535541        0.4030256020
 C          0.5151255526        1.4982751240       -0.0463108785
 O          0.1145375857        2.6325358238        0.2014110471
 N         -0.3569179220        0.6818528045       -0.8470978527
 C         -1.4418787823        1.4107281878       -1.4799694199
 C         -2.1235886423       -0.7879075035        1.2224536262
 O         -2.1476101450       -0.4617219928        2.3460010579
 N         -2.5762619044       -1.2142847137        0.1007660055
 C         -1.7100834540       -1.3723529559       -1.0887648055
 H          4.2351818303        0.8161110220        0.9072763154
 H          4.3685097694       -0.9766501648        0.4326624433
 H          2.3062102162        1.8450845597        0.9288223433
 H          2.6011196821       -2.1058242294       -0.2785765728
 H         -1.1757603082        2.4679597679       -1.4571528201
 H         -1.5513277763        1.0904588408       -2.5160649535
 H         -2.3869418899        1.3003133735       -0.9442948830
 H         -1.5550211661       -2.4408033994       -1.2713450339
 H         -2.2458641949       -0.9577688046       -1.9463247165
 H         -3.5552944681       -1.4941372350       -0.0122117792
 H          0.4620991397       -2.4683690032       -0.6959052907
