25
 energy: 14.032102597149 xtb: 6.6.1 (8d0f1dd)
C            3.33112915895997        1.10038689037374        0.12771398142409
N            2.33694233557391        0.07304996360687        0.01829406316791
C            2.62579630235324       -1.28684888012062       -0.03892094222246
N            1.42621223109670       -1.96325569675090       -0.10562695983283
C            0.42314428596936       -1.06490113092198       -0.02652524606380
C            0.92141330936499        0.22684330280154        0.05527315658049
C            0.05526497346048        1.38588275017474        0.10823891977344
O            0.45830161006208        2.54570975834919        0.20729097487524
N           -1.43057117721702        1.15052109838008        0.00263330722590
C           -2.47080302040597        2.32347115703382       -0.20879852695091
C           -1.86500403196747       -0.16168095859486        0.07006994249863
O           -3.03610887800323       -0.47335636895510        0.12686953545920
N           -0.92057871576139       -1.26672854554533        0.04788037731113
C           -1.37861439486085       -2.64930432286295       -0.02214966246435
H            3.87449023376141        1.05023798684757        1.08422957869303
H            4.07271482051032        0.99520264082869       -0.67225762490222
H            2.83447700107866        2.06093993191674        0.05041095393804
H            3.59564601208344       -1.73589310503074       -0.10720919869344
H           -1.94649955975283        3.28209202665342       -0.22342880254201
H           -3.05491759231957        2.26436471921184       -1.13567719373675
H           -3.15459056730781        2.34293881281910        0.64027680729896
H           -1.01244114701345       -3.23108499522216        0.83157792148677
H           -1.02387040036123       -3.14447885378075       -0.93579406137951
H           -2.46677250742932       -2.65023884588570       -0.01631018715200
H            1.35769912541238       -2.96723189858753       -0.17657291305591
