25
 energy: 22.248131299145 xtb: 6.6.1 (8d0f1dd)
C            3.34859469441820        1.08332009143130        0.13526748895132
N            2.34559728712795        0.06581681221272        0.00814566838421
C            2.63212884672874       -1.29409433543033       -0.06006705367616
N            1.43402953089873       -1.96719317631438       -0.12865666303396
C            0.43009795673167       -1.06921213137613       -0.04563693696528
C            0.92780832799117        0.22253548788600        0.04177252314677
C            0.05641445180612        1.38608594373214        0.11113308029580
O            0.46229482914280        2.53922658123303        0.25018412073172
N           -1.43939269743034        1.15942823110573       -0.03239496804174
C           -2.52461505821719        2.36413759664963       -0.23818748182494
C           -1.86750912414160       -0.15530532271601        0.08149919145105
O           -3.03051232073386       -0.48502029799815        0.17416967486250
N           -0.91306690689019       -1.26751486125157        0.03434909442918
C           -1.36152270183832       -2.65238430857064       -0.01617732896210
H            3.89872236384625        1.00837123685191        1.08756553321807
H            4.08543154806640        0.98191694564961       -0.66978636933207
H            2.86467523838214        2.05151998481188        0.07760512149027
H            3.59908566644706       -1.74553196945915       -0.14575051417232
H           -2.00749104622511        3.32507691962847       -0.25967344614731
H           -3.11160720619787        2.29759392102022       -1.16383282766491
H           -3.20920632563743        2.38898724378857        0.60715477997631
H           -0.98177694815889       -3.23243793090583        0.83424945153624
H           -1.00256800433412       -3.13961273709656       -0.93212350792275
H           -2.44996009770643       -2.66674909082924       -0.00439514704566
H            1.36817481853052       -2.97020203499048       -0.21233007758190
