72
 energy: -99.338115285312 gnorm: 0.007358909760 xtb: 6.6.1 (8d0f1dd)
N           -1.85596733172390        2.66127036759130        2.26232088619731
C           -1.80690196978035        2.01381608540760        1.19427625671406
C           -2.96621939290270        1.82189525011289        0.25504424695643
C           -3.47188177529489        0.38719648799059        0.35392197878355
C           -4.43503821059285       -0.05131545722087       -0.60323685077929
C           -4.97180154836725       -1.32003219091397       -0.55240604347867
O           -5.88529681450353       -1.81682523950494       -1.41755727812532
C           -6.45371724412972       -0.96073786634840       -2.38306423601868
C           -4.56945892649056       -2.22704373875186        0.46135226740676
O           -5.12055852924404       -3.42303736311457        0.45144400315931
C           -4.92852047462832       -4.36866574546635        1.31985087245812
C           -3.61110895772232       -1.82153273732188        1.53695837618414
C           -3.06326978496223       -0.44529823015314        1.33799695621558
C           -2.42396758015007        2.10967282649427       -1.16774032264167
C           -1.49179017406175        1.01992646008293       -1.72802969259756
C           -0.14409089445602        1.03121536680227       -1.11491944925503
N            0.53667561911005       -0.04359536402159       -0.72038789778253
C            1.91667938700069        0.07372139208947       -0.31368597284841
C            2.89118245672043       -0.35700223535293       -1.42677909933581
C            4.30597533756897       -0.13599148075776       -0.96907568738166
C            4.93150931332181        1.08229600575386       -1.17355197012190
C            6.22269500684501        1.30283757271964       -0.71856557108749
C            6.91286057203548        0.30740506506279       -0.04308704509566
O            8.16570737854230        0.40968382076560        0.44200390984964
C            8.88020135612207        1.60839667873147        0.24859785296766
C            6.27806829283671       -0.94567396450232        0.17438792907245
O            7.02066776692211       -1.85736762229911        0.83670617677651
C            6.48742215178086       -3.13789084438326        1.07253071271020
C            4.98713793614460       -1.14274469224808       -0.28834099801595
C           -0.04833532437802       -1.36171075708731       -0.73455278355267
C           -4.16644809047234        2.76780466537339        0.56439034928363
C           -4.82291182858791        2.42728701115259        1.90060446717147
C           -3.78314243803176        4.24506414502762        0.54385811961372
H           -4.75894637425587        0.63146788176260       -1.36792385836556
H           -6.92951642712782       -0.09374985571595       -1.91592843027660
H           -7.20976329634632       -1.55647578050554       -2.89070848326515
H           -5.70976415121017       -0.62505175360786       -3.11199736263932
H           -4.29369152350600       -4.26387973035615        2.18138426564943
H           -5.46593216717631       -5.27784121324614        1.13178651014168
H           -2.79303488566410       -2.54581084566531        1.62556565288600
H           -4.13649978149106       -1.84999456706435        2.51031543901315
H           -2.35623650651025       -0.11910882920601        2.08413016386283
H           -3.26526575024087        2.22075560837762       -1.85071304589468
H           -1.88796783013841        3.05938081262816       -1.15317317738458
H           -1.97092671088813        0.04661898706586       -1.63696885266024
H           -1.36794589282469        1.23079376173290       -2.79850436087672
H           -0.88636402989240        1.53727682340471        0.80588665637433
H            0.39519339904839        1.96658968431996       -1.11671706853846
H            2.08350644482820       -0.54527025265290        0.57223931830739
H            2.12619105196255        1.11176371956695       -0.04723776312259
H            2.69002467679128        0.23767961152204       -2.31935275444947
H            2.73127866227462       -1.40855453099073       -1.66804909991820
H            4.41897657611704        1.87125119995810       -1.70286514604556
H            6.68561310309284        2.25894648278484       -0.89953258651047
H            8.38693668205254        2.45300659783910        0.73950782863647
H            9.01174246848693        1.82935385222936       -0.81489225409561
H            9.85399541504024        1.44453930894173        0.70603847657111
H            7.26772026123977       -3.68752654958435        1.59535562803043
H            5.59422190622599       -3.09121750507309        1.70419152371640
H            6.24814314827891       -3.65223317901450        0.13645618047922
H            4.49928221879062       -2.09271983160021       -0.13501108931364
H           -0.21031852616915       -1.71272691394021       -1.75632659634649
H           -1.00701852309004       -1.35466662896656       -0.21001824089572
H            0.62014211927348       -2.05605870008878       -0.23176053664074
H           -4.90707209625228        2.60133186496970       -0.22591017829912
H           -4.11007890280599        2.55744413097351        2.70795813688621
H           -5.18789284872537        1.40347675167506        1.91114880151284
H           -5.66593968467480        3.09161366188561        2.07041036371173
H           -3.04218242759545        4.45306685565924        1.30931824991432
H           -3.39552196352012        4.55134481510036       -0.42405735381067
H           -4.66504677025882        4.84458199825655        0.75338312843489
H           -0.99988075060913        2.74171810741687        2.80257229441848
