25
 energy: -42.184927396166 gnorm: 0.009456909703 xtb: 6.6.1 (8d0f1dd)
C            3.30329265633901        0.89730878062944        0.01282270469780
N            2.33851316543721       -0.03443179162117        0.01164449681222
C            2.55361626494317       -1.37716981384068       -0.02291766113655
N            1.35439987636796       -2.03407190487352       -0.02576225420219
C            0.36596426914203       -1.12699640264715        0.00583242606575
C            0.94932850310348        0.15776865785839        0.02054396968986
C            0.12821391416848        1.26752548703800        0.02849523679340
O            3.06753804412460        2.18967137042458        0.23131986530656
N           -1.21998557080805        1.05492809348907       -0.02219543447005
C           -2.13827351416883        2.17358336956004       -0.10125340859175
C           -1.83067146557440       -0.19569220549943       -0.00881362720610
O           -3.02373220490418       -0.31881403158981       -0.02813985588582
N           -0.97720399769860       -1.30883126249431        0.02978088122593
C           -1.55528433745149       -2.63270653322532        0.12371260621294
H            4.32434014906256        0.56144277870970        0.09688404081341
H            2.57597715667689        2.66958960120234       -0.44567825184961
H            0.46227621391685        2.28628279739415        0.09977580037193
H            3.51034319296498       -1.84761227341182       -0.01667112395649
H           -1.59399888623882        3.10955077228433       -0.02631416792346
H           -2.67978714252340        2.13603122564889       -1.04748505779054
H           -2.87300948659345        2.10584789431426        0.70089678363959
H           -1.25583239497794       -3.10984425627308        1.05780761809846
H           -1.24970486024426       -3.24684034361507       -0.72315718264562
H           -2.63836045685910       -2.52072542108959        0.11083029269818
H            1.26247242589581       -3.03755604677100       -0.03078707886934
