  25
        -42.11878718
 C          3.3906753931        0.9835527842        0.0317906310
 N          2.4285822513       -0.0855313199       -0.0068788119
 C          2.6707424250       -1.3859146283       -0.0602174861
 N          1.5057663743       -2.0699087276       -0.0566033388
 C          0.4807473757       -1.1627952412        0.0005548149
 C          1.0733989234        0.0935314178        0.0322362433
 C          0.2341300604        1.3125006577        0.0476486747
 O          0.7089357739        2.4285796762        0.0448212099
 N         -1.0741199917        1.0153512982        0.0509468196
 C         -4.0851317602        3.1496100937       -0.1813957054
 C         -1.6844487990       -0.1597287869        0.0417732825
 O         -2.8766119775       -0.3248503608        0.0455585261
 N         -0.8371312369       -1.3593623052        0.0171746575
 C         -1.4532535489       -2.6636674127        0.0094846416
 H          3.8220884378        1.0657538111        1.0305485235
 H          4.1882430805        0.8052975128       -0.6863326474
 H          2.8746344718        1.9167316608       -0.1980332291
 H          3.6430674391       -1.8364917318       -0.1049651934
 H         -3.3410403455        3.9223451269       -0.1759064593
 H         -4.4029758280        2.7140840296       -1.1089155954
 H         -4.4968979571        2.7913211164        0.7418938158
 H         -1.1471106727       -3.2408774715        0.8833129495
 H         -1.2043348588       -3.2072507626       -0.9034271548
 H         -2.5313941293       -2.5059945017        0.0458419756
 H          1.4206054276       -3.0759575656       -0.0921714913
