  72
        -99.33820855
 N         -1.7532637726        2.7521406729        2.4946422485
 C         -1.7443868414        2.0931209341        1.4328992477
 C         -2.9066613330        1.9846421640        0.4841816864
 C         -3.4131711141        0.5475563766        0.4516071112
 C         -4.3915542655        0.2074789374       -0.5303358062
 C         -4.9634256710       -1.0461354507       -0.5695459959
 O         -5.9246774596       -1.4388692089       -1.4360444323
 C         -6.4632229236       -0.4979283357       -2.3374847053
 C         -4.5536539826       -2.0477301421        0.3465249621
 O         -5.1492077031       -3.2193359874        0.2645424532
 C         -4.9160639824       -4.2577162124        1.0072135203
 C         -3.5005363052       -1.7839136764        1.3776258355
 C         -2.9870372813       -0.3802339564        1.3372694677
 C         -2.3512128942        2.3844377487       -0.9081315454
 C         -1.4547791265        1.3215460780       -1.5681767255
 C         -0.1161455621        1.2063939074       -0.9462003382
 N          0.5154333977        0.0658603976       -0.6742659369
 C          1.9068794572        0.0673043415       -0.2903736610
 C          2.8268071963       -0.3531616780       -1.4528881237
 C          4.2645414630       -0.2490295638       -1.0267092928
 C          4.9635060772        0.9352270851       -1.1884945920
 C          6.2802188191        1.0457629847       -0.7683105005
 C          6.9231944203       -0.0282901608       -0.1712277679
 O          8.1948419174       -0.0345761706        0.2736946395
 C          8.9790902616        1.1261741144        0.1236470436
 C          6.2131434676       -1.2475421250        0.0018041597
 O          6.9146041704       -2.2408460691        0.5870071586
 C          6.3061111710       -3.4956503550        0.7737049665
 C          4.8978210521       -1.3343054357       -0.4247863611
 C         -0.1212736132       -1.2174889676       -0.8393714050
 C         -4.1001559252        2.9105555958        0.8637247800
 C         -4.7170455703        2.5119067693        2.2025280116
 C         -3.7266808006        4.3905663695        0.8904379542
 H         -4.7113601384        0.9589007682       -1.2294669559
 H         -6.9131314285        0.3484047100       -1.8105839458
 H         -7.2358037071       -1.0316694723       -2.8872990509
 H         -5.7061578512       -0.1349804106       -3.0393578381
 H         -3.8863892317       -1.9955886475        2.3812888304
 H         -5.5172952082       -5.1190897572        0.7903260458
 H         -4.1970174054       -4.2663025035        1.8068574175
 H         -2.6646260065       -2.4937754566        1.2305877543
 H         -2.2781474282       -0.1269741099        2.1097602416
 H         -3.1883916052        2.5828294351       -1.5764583939
 H         -1.7863230838        3.3115648713       -0.8059174489
 H         -1.9755295086        0.3658300760       -1.5889164002
 H         -1.3055963340        1.6389452178       -2.6088581766
 H         -0.8563108638        1.5558034401        1.0490062167
 H          0.4599410772        2.1124730897       -0.8342515899
 H          2.0486514274       -0.6190985078        0.5494788813
 H          2.1892171103        1.0695437749        0.0374623763
 H          2.6415791407        0.3062468836       -2.3024387656
 H          2.5960893389       -1.3763114282       -1.7518251576
 H          4.4883657637        1.7834560415       -1.6575549775
 H          6.8003430588        1.9778769857       -0.9157816982
 H          8.5537920823        1.9712473712        0.6737354242
 H          9.0961603837        1.3971901028       -0.9299348546
 H          9.9522292935        0.8768754722        0.5421899168
 H          7.0650349032       -4.1219249740        1.2386621600
 H          5.4386775465       -3.4269294314        1.4383618206
 H          6.0037425706       -3.9414843967       -0.1791170602
 H          4.3529592058       -2.2577962636       -0.3050131230
 H         -0.2364157491       -1.4719337893       -1.8958458614
 H         -1.1067133310       -1.2103805858       -0.3701399289
 H          0.4873590094       -1.9823949981       -0.3627913412
 H         -4.8630472399        2.7712991422        0.0893936682
 H         -3.9987036545        2.6612654483        3.0017277288
 H         -5.0302551596        1.4708205884        2.1969628297
 H         -5.5887820947        3.1302830237        2.3996561685
 H         -2.9448006788        4.5691807920        1.6217183620
 H         -3.3969351511        4.7444192269       -0.0827202801
 H         -4.5989537301        4.9723049190        1.1768831080
 H         -0.8960983192        2.7794303937        3.0384472088
