  25
        -42.18652003
 C          3.4168775293        0.5146427203       -0.0470995255
 N          2.1957821640       -0.1732209086        0.0794358041
 C          3.3385936228       -0.9783932629       -0.0702327748
 N          0.6871614099       -2.4122498295        0.0153317491
 C          0.0823063859       -1.2876038958        0.0145591265
 C          0.8879666216       -0.0873525582        0.0261722179
 C          0.2848807609        1.2409628706        0.0132456743
 O          0.9501589357        2.2599921420        0.0073774187
 N         -1.0980130193        1.2546062227        0.0015815997
 C         -1.7782484430        2.5350684585       -0.0148703055
 C         -1.9119645369        0.1337284439       -0.0011794450
 O         -3.1141087019        0.2414457936       -0.0096555359
 N         -1.2910661465       -1.1076225284        0.0032534170
 C         -2.1516673376       -2.2758593752       -0.0032878312
 H          3.7954645234        1.0096082245        0.8422755473
 H          3.5766444418        1.0840337226       -0.9571713610
 H          3.4436650462       -1.5287982148       -0.9941655587
 H          3.6528880783       -1.5346590383        0.8065463432
 H         -1.0264962715        3.3228324014        0.0068254208
 H         -2.3903752499        2.6210828524       -0.9151106590
 H         -2.4394281062        2.6166423547        0.8501210239
 H         -1.9834538607       -2.8782814222        0.8919449956
 H         -1.9680123817       -2.8799757066       -0.8942632721
 H         -3.1866280869       -1.9343227108       -0.0123627537
 H          0.1689610804       -3.2778017318        0.0127864083
