25
 energy: 146.190667729045 xtb: 6.6.1 (8d0f1dd)
C            3.19149388368471        1.10661755993866        0.23277097588903
N            2.27002923621272        0.02615010073175        0.08971877122611
C            2.59274224109965       -1.28119995973713        0.00170990322598
N            1.45698219426755       -2.02225327058037       -0.06784227958306
C            0.40961624994962       -1.16637123258603       -0.02465807592729
C            0.88221944027970        0.15861034807748        0.08118479484318
C            0.08557143847928        1.32101245750104        0.13117669106382
O           -0.90013118997115        3.73197812732625       -0.49368717773267
N           -1.27009956376709        0.94083986103650        0.08284155143510
C           -2.12970298347796        1.98045888510795        0.21473326059331
C           -1.80719950784410       -0.37591630472832        0.05456876764024
O           -2.99600519585259       -0.59461133657669        0.16972446475585
N           -0.91520725135740       -1.45148108700124       -0.04704455328306
C           -1.38268457478746       -2.82195054952146       -0.14119900720515
H            3.40354806964374        1.29409967229294        1.28910166374311
H            4.12253385274684        0.90105472669763       -0.29816622832347
H            2.71291531593219        1.97968721081063       -0.19753215254923
H            3.57588449487836       -1.69141355433874       -0.05655945613467
H           -1.60776991662488        4.56535256802939       -0.81382744680958
H           -3.17814210135213        1.82915409844184        0.12267209835057
H           -1.67842869261529        2.94268072249512        0.53578275012229
H           -1.01146071065111       -3.43122763824396        0.68633250112163
H           -1.06868043229589       -3.26958448904824       -1.09090328113957
H           -2.47099284057855       -2.81611077634717       -0.09286730857079
H            1.41869364111162       -3.02481765034045       -0.17185401351565
