25
 energy: 143.696162377634 xtb: 6.6.1 (8d0f1dd)
C            3.18600988777343        1.10013479672100        0.24019165181089
N            2.27100159536622        0.01562833980413        0.07876781897797
C            2.59587918670770       -1.28847698040862       -0.00996965506997
N            1.46003269997540       -2.02643852166267       -0.06596314650266
C            0.40823853788628       -1.17699798786949       -0.02184597387344
C            0.88277781736643        0.14729618160621        0.07921411938087
C            0.09417720454596        1.30939417457407        0.14454055048439
O           -0.94446827246094        3.84451853945909       -0.46723980915352
N           -1.27490818596171        0.93177197121073        0.11059889813514
C           -2.13792137370401        1.94584094535061        0.24707356017847
C           -1.80663273690666       -0.39861550735469        0.06746749587166
O           -2.99562917364702       -0.61818433700681        0.17819540990911
N           -0.91454708388966       -1.46679325084282       -0.04304749893020
C           -1.37639492739933       -2.83856972504634       -0.14696828401413
H            3.37522544680947        1.29004801209377        1.29880925825907
H            4.12593654075792        0.88752629839220       -0.27139677779970
H            2.71545194222558        1.97813147509659       -0.19232047128894
H            3.57729381319517       -1.70597003169049       -0.04577557045712
H           -1.57486630736681        4.70655548283526       -0.76858425876620
H           -3.19693655019993        1.79651962891209        0.21511659950834
H           -1.64620774274417        2.98990103583492        0.40079779176708
H           -0.99489797249537       -3.44745767109215        0.67526553534684
H           -1.06542963498255       -3.28072613068952       -1.09988420423098
H           -2.46401865519165       -2.83880196718273       -0.09311678182060
H            1.41776637559705       -3.03231505930053       -0.16524691537506
