25
 energy: 129.976649730839 xtb: 6.6.1 (8d0f1dd)
C            3.17038872512915        1.05574531859664        0.20970071935516
N            2.28290235944239       -0.06508777148277        0.08971011286656
C            2.62236369126905       -1.35939191703465       -0.01597728056719
N            1.50127768179085       -2.11989352708906       -0.07854013495319
C            0.42718303713096       -1.29310131673283       -0.01446658999570
C            0.89292612117643        0.02774153206086        0.09610116083583
C            0.09409138955026        1.16287762121343        0.15384999784536
O           -0.94650758766803        4.38745944189813       -0.39018547536165
N           -1.25513457034455        0.84224289833948        0.11404219949979
C           -2.11815245848889        1.85647111178850        0.11423992666314
C           -1.79935232367777       -0.48424998108133        0.07463107481614
O           -2.99289627974252       -0.68771850721354        0.11962209455739
N           -0.90484187332340       -1.54801836257698       -0.02345504768978
C           -1.40622917967566       -2.90118555332253       -0.14538756751205
H            3.41550827279143        1.24302822796653        1.25804548678692
H            4.09010613380634        0.87041124557955       -0.34641711650618
H            2.65927847225912        1.93593961492832       -0.17840410831771
H            3.61806420907862       -1.74824290624181       -0.03833886018321
H           -1.40885527551019        5.19671102431531       -0.60935579476118
H           -3.16908448313902        1.61857877851862        0.05323228609632
H           -1.70761394654350        2.88772930808748        0.04048289168721
H           -1.04289712577399       -3.51703562345952        0.68080915551682
H           -1.09465095080420       -3.33898178105382       -1.09669875704947
H           -2.49338115103610       -2.85553221201304       -0.10960412024807
H            1.49948149915623       -3.12493571780625       -0.17394228200737
