25
 energy: 131.360603988891 xtb: 6.6.1 (8d0f1dd)
C            3.21375001225524        1.12572272506748        0.21509638805428
N            2.27085866460618        0.06118629884150        0.08698417406137
C            2.58112824551458       -1.26239546240933        0.02202602419167
N            1.43143175407373       -1.96877669478984       -0.07078128027582
C            0.39658549888706       -1.07943571211778       -0.03283558509560
C            0.86779620759574        0.27847524746146        0.04891022909256
C           -0.01300875776586        1.51985957055107       -0.00342970142648
O           -0.15478144622675        2.82601381303612       -0.19606431394132
N           -1.34746127256518        0.97366423010824        0.03902487768439
C           -2.22490142644865        2.02807745110485        0.10466875025695
C           -1.83597870572322       -0.34390575451178        0.04673906843256
O           -3.02158106470821       -0.57759849922256        0.13560591774814
N           -0.92047421715710       -1.40817231285079       -0.04516791931751
C           -1.38761458761730       -2.78311217572018       -0.13048823673846
H            3.46847560357092        1.29470070102155        1.26744075328437
H            4.12316259712859        0.91992857158835       -0.35443404730410
H            2.73118329225790        2.00550965451071       -0.19551052283384
H            3.56512264769982       -1.69701801065957       -0.05222463906133
H           -1.95060630893654        4.47762803893215       -0.96832529089954
H           -3.24767397216576        1.81625387411218       -0.03360995677459
H           -1.89426283354401        2.90590792791617        0.64382464919966
H           -1.03360127109381       -3.38797744469326        0.70762946017708
H           -1.07149434643420       -3.24813150975354       -1.07028187283907
H           -2.47877210202755       -2.77190367327576       -0.09470364230630
H            1.39617791343306       -2.97530873774480       -0.16289839990986
