25
 energy: 130.105505479510 xtb: 6.6.1 (8d0f1dd)
C            3.17640903826831        1.05541192164198        0.21268922251658
N            2.29032417702384       -0.06691463387592        0.09121314197611
C            2.62420561049112       -1.36238304359089       -0.01312285131292
N            1.50279741863398       -2.11991681484445       -0.08109877588909
C            0.42948201320278       -1.29265665383598       -0.01311150726887
C            0.90216414478814        0.02649716998662        0.09708654228911
C            0.09133939244736        1.15024793667069        0.14556090093244
O           -0.95973602110785        4.38650080165640       -0.36750075815620
N           -1.25477289675356        0.84026951569143        0.10735368293334
C           -2.12552673938919        1.84679679571080        0.11388822290146
C           -1.80155378954718       -0.48684049998135        0.07339027147045
O           -2.99509392106603       -0.68712076145631        0.11960712329281
N           -0.90408956969600       -1.54694286730108       -0.02615291794814
C           -1.40804372231260       -2.90017217467167       -0.14700594404018
H            3.42394230844712        1.23862218582316        1.26107232708586
H            4.09630770451565        0.87607975924647       -0.34289459208847
H            2.66514300618993        1.93646980796865       -0.17500215932042
H            3.62168551321260       -1.74656366897541       -0.04081987381407
H           -1.41578712767688        5.18763051143002       -0.62164950871038
H           -3.17945477771834        1.61770800560633        0.09767959680115
H           -1.71825213404310        2.86879777574447        0.04084762019812
H           -1.04854621841047       -3.51648812905840        0.67889085251410
H           -1.09879624674100       -3.33667905332100       -1.09893342670875
H           -2.49535984810893       -2.85424388210662       -0.11142110172313
H            1.49342699032175       -3.12508121541442       -0.17353217573710
