25
 energy: 141.100466247441 xtb: 6.6.1 (8d0f1dd)
C            3.18143491160442        1.09742771200092        0.24921904229031
N            2.27515230824738        0.00505020126312        0.07221644605878
C            2.60271882251076       -1.29800307312987       -0.01575390437669
N            1.46672628611990       -2.03230672295598       -0.07126595378682
C            0.41015697110555       -1.18774182582118       -0.02023253460118
C            0.88707211030138        0.13367834083228        0.08095707986541
C            0.10871900306245        1.29973978984514        0.15156677296973
O           -0.99401485093959        3.92710849235052       -0.47003958768418
N           -1.27076340128492        0.92407390581887        0.11495941265466
C           -2.15188866406480        1.90870338998531        0.25722357208442
C           -1.80346033254787       -0.41667356402023        0.07460815246729
O           -2.99573893609668       -0.62801932907418        0.16235877827075
N           -0.91238177228600       -1.48028953615472       -0.03473206326549
C           -1.37292430243162       -2.85078830565655       -0.15412146796211
H            3.34625192794319        1.28669404556804        1.31281076113142
H            4.13057186131714        0.87591375383057       -0.24244413642126
H            2.70984355344791        1.97633811412301       -0.18526653905269
H            3.58321676339406       -1.71980132822700       -0.04029954085181
H           -1.52731883528228        4.83987629543132       -0.72785032371365
H           -3.20747082437051        1.74054252664538        0.31543022744834
H           -1.70459996985149        2.97318117107774        0.30092203276321
H           -0.98020474773583       -3.46558082865390        0.65958261293426
H           -1.06944402439498       -3.28441950044509       -1.11175651501503
H           -2.45928427372040       -2.85827163988051       -0.09235424877993
H            1.43125584035874       -3.03838772345099       -0.17133179023138
