25
 energy: 144.976107522793 xtb: 6.6.1 (8d0f1dd)
C            3.20159065469305        1.11233657884928        0.22518191619322
N            2.27427003161059        0.03556701099141        0.09555309571136
C            2.59246998487725       -1.28026005968541        0.01542299407220
N            1.44955826562088       -2.01436026956474       -0.07433462750791
C            0.41022060529275       -1.15050734091556       -0.03314035876664
C            0.88354531684934        0.17346371355942        0.07623153712304
C            0.07736741737131        1.33645207677407        0.11832158126065
O           -0.88232677354475        3.57738122997273       -0.50799657923704
N           -1.27278804462458        0.94924490083191        0.06322915837795
C           -2.11940438416101        2.03908742876083        0.13217891273956
C           -1.81402925118641       -0.35235397736248        0.04405399540989
O           -3.00124799214702       -0.58046138032439        0.15336609795967
N           -0.91654396279369       -1.43354776791388       -0.05234336494634
C           -1.38695932685766       -2.80361913417861       -0.13767818444459
H            3.43541516656439        1.29307740238098        1.27914632939752
H            4.12357739107359        0.90775215300474       -0.32443938060452
H            2.72035437013584        1.98564999284850       -0.20063491550370
H            3.57461725625448       -1.69929353981032       -0.05498977549345
H           -1.64175303907722        4.40094920102361       -0.84318884906062
H           -3.16657014071089        1.85214660040456       -0.00235324241247
H           -1.80609561727165        2.89812161935915        0.68059454454358
H           -1.02243071714400       -3.40880335924964        0.69629605977508
H           -1.06929234450175       -3.26027531624190       -1.08181934461041
H           -2.47591149657549       -2.79504326611862       -0.09463143702185
H            1.42055054515189       -3.01494269905685       -0.17012099465327
