25
 energy: 137.901189454473 xtb: 6.6.1 (8d0f1dd)
C            3.17934097189052        1.08956469016358        0.24932968687247
N            2.27775506277855       -0.00796890817002        0.06917786124408
C            2.60667519692924       -1.31053259659485       -0.01345918810340
N            1.47230446656004       -2.04160808954723       -0.07947733438515
C            0.41292611614514       -1.20317199949187       -0.02027889234583
C            0.89021324681945        0.11661842196967        0.08118542736456
C            0.11634674703305        1.28396213328462        0.15358265185810
O           -1.03226626670617        3.99930801340448       -0.45875945699769
N           -1.26762249625038        0.90363229604510        0.12568211622639
C           -2.16915039582463        1.87044583523946        0.25350221727339
C           -1.79864803260753       -0.43570752285508        0.07531352513819
O           -2.99222551734778       -0.64101283499006        0.14054478025790
N           -0.90842725192420       -1.49666837170226       -0.02819000498089
C           -1.37505086557594       -2.86269506666034       -0.15387562212271
H            3.33753687950629        1.27829318554111        1.31588861518912
H            4.13542728789707        0.86211957598008       -0.22149556714985
H            2.70272916653637        1.96989411964006       -0.18118783607612
H            3.58937220318040       -1.73004635090474       -0.03150866337928
H           -1.45843862010847        4.94901078561134       -0.66712551607609
H           -3.22111443914703        1.68643168057325        0.29123861152744
H           -1.75398761682001        2.92523056980920        0.22289931340677
H           -0.97622500462834       -3.48495324613002        0.65089825070176
H           -1.07286660572637       -3.29454848216901       -1.11145439995208
H           -2.45973208907808       -2.86935002224077       -0.10108137391861
H            1.44565716273585       -3.04683214910590       -0.16943189511431
