25
 energy: 136.605755982238 xtb: 6.6.1 (8d0f1dd)
C            3.18129015918297        1.08077317336825        0.24383380510755
N            2.28252993807140       -0.02342163653704        0.07494982683453
C            2.61233661883896       -1.32576211275515       -0.00560778724461
N            1.48024839222607       -2.05686018859818       -0.08360322299062
C            0.41819208070544       -1.22159316652250       -0.01857435983112
C            0.89461438411431        0.09604243485067        0.08640761129636
C            0.11915941820716        1.26086378763146        0.16255047910440
O           -1.08573387405872        4.10933740522568       -0.46542235497255
N           -1.26464523168972        0.89234473635626        0.13368981156669
C           -2.17993582695372        1.85519264172727        0.23489068360228
C           -1.79418522707070       -0.45176979178882        0.08695564521341
O           -2.98665098246888       -0.66169510509028        0.13156375957931
N           -0.90312284038540       -1.51015923733508       -0.02106969999280
C           -1.38375862170929       -2.87076243175852       -0.14736233183657
H            3.36251294705655        1.27182069443675        1.30602626091212
H            4.13501432199894        0.86120181737783       -0.22992006460780
H            2.69430702964512        1.96163567790307       -0.17233186080248
H            3.60293951109588       -1.73070454407659       -0.02952157564142
H           -1.39038428838809        5.10091516311965       -0.64465125185603
H           -3.22767301923205        1.63913963624293        0.25174087151403
H           -1.80734139993972        2.89963796789975        0.12495732249130
H           -0.99676271905174       -3.49001651844338        0.66292486937068
H           -1.08254218810959       -3.30646658949064       -1.10309055326514
H           -2.46916152698594       -2.85326718507011       -0.10198317882196
H            1.46412568762469       -3.05996498171515       -0.17066389471650
