25
 energy: 20.853647238947 xtb: 6.6.1 (8d0f1dd)
C            3.22969972975076        1.15339891601623        0.14844356252709
N            2.28194284509834        0.08782800748981        0.03921415797969
C            2.59805219340042       -1.27074263756540        0.02028183427901
N            1.39648017392967       -1.94866673937739       -0.04323918743529
C            0.38552823604020       -1.04800586016476       -0.02409205702496
C            0.87673050177419        0.27739953310969        0.01880476489504
C            0.01703226818099        1.48268650493583       -0.06285212047250
O            0.13720836023891        2.72523358823450       -0.14976433063660
N           -1.33910635724994        1.07134590029837       -0.04483175814268
C           -2.20121184551354        2.31124629119234       -0.13399647362349
C           -1.85032972846495       -0.21468483125131        0.01015053561586
O           -3.04197178870267       -0.45260380475574        0.03014037461099
N           -0.94903207850069       -1.32572973913409       -0.02269933408726
C           -1.43930132278214       -2.69237828334545       -0.09541899230270
H            3.61354271907603        1.25151113931094        1.17271860640750
H            4.06945986014991        0.98706390150944       -0.53219934194410
H            2.70233937627882        2.05801495364208       -0.13882673123149
H            3.57660137379595       -1.70261762065495        0.00236142551426
H           -1.79410327835802        3.34548472857846       -0.61502314184414
H           -3.10367234301156        1.92615295946418       -0.60434666674752
H           -2.44986123502079        2.56820502725099        0.89961994979598
H           -1.11405220680129       -3.27913696234804        0.76973890658312
H           -1.10995185172643       -3.19524028450563       -1.01161264392420
H           -2.52736068659146       -2.65199032131491       -0.09227505847235
H            1.33551988123523       -2.95578835874213       -0.09264195984140
