25
 energy: 31.249583669383 xtb: 6.6.1 (8d0f1dd)
C            3.22702860968237        1.14672247066197        0.16286818341922
N            2.28010258729830        0.07968070850859        0.04110155968049
C            2.59993721456810       -1.28087010523460        0.01496583989067
N            1.39747257682865       -1.95334259186371       -0.05183342719370
C            0.38345188816926       -1.05259600755353       -0.02909413543918
C            0.87438730795124        0.27113227955542        0.01585527951245
C           -0.00994194950379        1.47608649738040       -0.08027613123555
O            0.07666735006074        2.71508395274771       -0.20958834908287
N           -1.35583181333715        1.06177865925970       -0.06294613399593
C           -2.22108166687442        2.31940684434760       -0.13885481278191
C           -1.85825685687108       -0.22960721945285        0.01441739678837
O           -3.04790214085176       -0.47289539415308        0.05644285149290
N           -0.94987382214279       -1.33608908223904       -0.01867120575941
C           -1.43230557573611       -2.70524229136838       -0.10146020926854
H            3.59301275045643        1.25284444492259        1.19395272930235
H            4.07947145597964        0.97680562031299       -0.50180072948873
H            2.70700779492032        2.04986348324418       -0.14321036662386
H            3.57804093549120       -1.71432684287377       -0.01599446171771
H           -1.86374513660880        3.40751586626674       -0.70186955536996
H           -3.14878318463376        1.90171705989359       -0.52256788425409
H           -2.36424937170346        2.64877419530221        0.89178067613253
H           -1.10110218520501       -3.29861491899127        0.75694144707277
H           -1.10336753879552       -3.19863523913463       -1.02323907719709
H           -2.52070108854626       -2.67278590816441       -0.09329515215770
H            1.33430969557463       -2.96015269355830       -0.11461283862199
