25
 energy: 3.561690527198 xtb: 6.6.1 (8d0f1dd)
C            3.23827351156629        1.16498907966510        0.12579882717743
N            2.29489815611080        0.10077068619089        0.04171215072670
C            2.60110019609059       -1.25269113641658        0.02390743582726
N            1.40864231694231       -1.93946578670400       -0.02497166122034
C            0.39637012766594       -1.04694967141244       -0.01329487165045
C            0.89853302040437        0.26882432284279        0.01991613311687
C            0.07341461987063        1.45146502809001       -0.04580532111126
O            0.29012616867274        2.67214268878961       -0.12223599350436
N           -1.29893050526506        1.05565225612331       -0.01497599080582
C           -2.16718871952273        2.24942012788483       -0.09268473549732
C           -1.83528496123280       -0.20595741919892       -0.00656252638775
O           -3.03075508677309       -0.42185171897399       -0.00995733972319
N           -0.94179112464681       -1.31375250873662       -0.02615721584743
C           -1.45045224693352       -2.67110108606903       -0.08031245266857
H            3.65970939179797        1.23829035956861        1.13475829832555
H            4.04882103716815        1.00873027850653       -0.58965669926279
H            2.69931211673564        2.07620598775186       -0.11568818373832
H            3.57756108015588       -1.68019706709757        0.01998319735833
H           -1.66611201549494        3.22773586921323       -0.41511632981969
H           -2.98616954580177        1.97794759324841       -0.75907800199970
H           -2.61999286830296        2.38253097267346        0.88640689068795
H           -1.13554664823404       -3.24497417581203        0.79618701185714
H           -1.12193969689387       -3.18673389062615       -0.98809727193023
H           -2.53802698369511       -2.61208623725772       -0.08516009175155
H            1.34669266122521       -2.94638768565849       -0.06060357192320
