25
 energy: 121.325479023570 xtb: 6.6.1 (8d0f1dd)
C            3.21976823956206        1.12722887300946        0.20710794166514
N            2.27709034313791        0.05835497299810        0.08009549050661
C            2.58667783963313       -1.27349552051023        0.02098834388475
N            1.42329925052881       -1.96647181421049       -0.07270393260763
C            0.39478489942325       -1.06972830186483       -0.03484216282123
C            0.87084852458636        0.27644310508159        0.04219086140889
C           -0.01650967193816        1.51363080148086       -0.01402189980795
O           -0.10836906134499        2.80084422408570       -0.17972512679689
N           -1.35038255754447        0.98893294192219        0.01393917782499
C           -2.22530241963473        2.08225428310293        0.05259306400913
C           -1.84538745647632       -0.32117082161178        0.03538984020149
O           -3.02991279134910       -0.55844489312423        0.12137593832733
N           -0.92530553127328       -1.39272318872596       -0.03903683206067
C           -1.39588711755429       -2.76614445235287       -0.12472764271238
H            3.49781016316391        1.28417632566898        1.25704494283349
H            4.11841064590697        0.93044050664610       -0.38444297582678
H            2.72848933526761        2.01250374083292       -0.18182283934558
H            3.56846715410509       -1.71501412947878       -0.05466753659407
H           -1.99847185784465        4.27066501028633       -0.97663583552189
H           -3.23597576199526        1.82703536134665       -0.13139242797703
H           -1.97108739652045        2.88652645755139        0.72497089905531
H           -1.04757426991558       -3.36896110512134        0.71755556199882
H           -1.07775750661927       -3.23610158694933       -1.06134726619571
H           -2.48690402151238       -2.74881618537871       -0.09431012102694
H            1.37704501692045       -2.97397779902976       -0.15863277794378
