25
 energy: 133.288532384752 xtb: 6.6.1 (8d0f1dd)
C            3.18134697290569        1.05153576828825        0.21995676991541
N            2.28587940745338       -0.06195589634166        0.08222536297981
C            2.60676144689761       -1.35702276824542       -0.00676333782055
N            1.48335605707678       -2.10249356763077       -0.08677365483687
C            0.41809002315894       -1.27191642779920       -0.01936850800677
C            0.89983351946680        0.03447249270318        0.09554166571909
C            0.13040759296992        1.18909957475486        0.16211933557976
O           -1.08921710861035        4.17771999263067       -0.43239542755719
N           -1.24096666308225        0.85799498826929        0.11759005211342
C           -2.16529224818411        1.81446540234456        0.17124548354515
C           -1.79200308449367       -0.47477205197570        0.07262518256451
O           -2.98593165666489       -0.68245480468031        0.12382324689986
N           -0.90828547631418       -1.53922776841632       -0.02574012566573
C           -1.40833152844774       -2.89390722203708       -0.15344148749324
H            3.42123572499322        1.23376083799506        1.26990850313050
H            4.11241462128726        0.87129421856466       -0.31615586748638
H            2.67149024053029        1.93089308463633       -0.17228190780246
H            3.60443521328515       -1.73458905640059       -0.05337138205985
H           -1.19957923586351        5.10396715320897       -0.56286441433265
H           -3.23343435574971        1.54520564457177        0.13601133141973
H           -1.80922439089186        2.85072646393217       -0.02243041440270
H           -1.04450663002519       -3.51531363641942        0.66762402243582
H           -1.10203596153247       -3.32718092465409       -1.10850810899929
H           -2.49570313525137       -2.84937078729105       -0.11483904999716
H            1.46495247463271       -3.10448011203228       -0.17614213650911
