25
 energy: 43.983563873135 xtb: 6.6.1 (8d0f1dd)
C            3.22365802098732        1.14027549017978        0.17581465005226
N            2.28064445620926        0.06881472659296        0.04682022568988
C            2.60025591387207       -1.29044114537657        0.01445247983950
N            1.40134471362217       -1.95907945363849       -0.06010343305727
C            0.38510795907215       -1.05999196388166       -0.03530723040737
C            0.87476533092171        0.26528720554398        0.00945917241279
C            0.00206928293324        1.48075352432201       -0.07930961236172
O            0.08746124614502        2.72531987454681       -0.22976040073920
N           -1.34967167073497        1.05569934679448       -0.06891848757391
C           -2.21302059995251        2.31568496410667       -0.12054781130180
C           -1.85831671222867       -0.23918735807672        0.01841924134650
O           -3.04598309507637       -0.48506686052584        0.07799280329200
N           -0.94766013906478       -1.34695052790341       -0.01743996974040
C           -1.42499476032039       -2.71816886525020       -0.10811815347211
H            3.57251493159455        1.25843052150355        1.21203833502849
H            4.08696011851422        0.96839901387712       -0.47414885444247
H            2.70906531207830        2.04063003073147       -0.14823727323271
H            3.57837106995807       -1.72619840730458       -0.03474535383997
H           -1.90494848588894        3.51515014576802       -0.75095717432042
H           -3.16173333202868        1.89238545808673       -0.43244551751718
H           -2.26969767586622        2.71929472245739        0.88604201980257
H           -1.08817461819513       -3.31833113633403        0.74347196249269
H           -1.09654130420813       -3.20300241610177       -1.03504717487660
H           -2.51378031894066       -2.69412839992721       -0.09495713516167
H            1.33763863673117       -2.96593817879395       -0.13519400776855
