  25
        -42.00875469
 C          2.9463666377        1.7238164615       -0.4298816979
 N          2.2702114278        0.5107574400       -0.6337528746
 C          2.1307660849       -2.8347141277        1.1576052054
 N          0.9814815894       -2.3184727369        0.9416788507
 C          0.5827674029       -1.1545830512        0.1983312541
 C          1.4357145339       -0.2060307421       -0.1664972516
 C         -0.8083249750        2.1906812009       -0.2859808645
 O         -0.5702735146        3.0168472978       -1.0550054407
 N         -0.9969367074        1.1637299067        0.4139748072
 C         -1.1451956032        1.1788060896        1.8742359786
 C         -1.5960485385       -0.0978250666       -0.2446159744
 O         -2.6966618480       -0.0239300207       -0.6876686940
 N         -0.7778030313       -1.1518696542       -0.2084154194
 C         -1.3103385186       -2.3911744394       -0.7795012596
 H          2.7491268352        2.1787074697        0.5437075388
 H          4.0140622135        1.5272614420       -0.5404226236
 H          2.6568524978        2.4078288259       -1.2299577242
 H          3.0018684128       -2.3428018702        0.7355459149
 H         -0.7742701677        2.1172456272        2.2785509751
 H         -2.1991107255        1.0657216011        2.1334267098
 H         -0.5754845838        0.3506901022        2.2937411629
 H         -1.8359584106       -2.9758711486       -0.0229995577
 H         -0.4983799983       -2.9759512417       -1.2057468983
 H         -2.0221413353       -2.1397781967       -1.5649483567
 H          0.1754658908       -2.8060431921        1.3323150768
