25
 energy: -42.182666855515 gnorm: 0.009881139471 xtb: 6.6.1 (8d0f1dd)
C            3.20035501214912        0.95215921018389        0.09633016463522
N            2.30166237658287       -0.01769258645306        0.04835589815201
C            2.53503859785620       -1.36520515283624        0.00844663672883
N            1.33492110735994       -2.03223209707740       -0.04266152143219
C            0.34017298039317       -1.14723456617796       -0.03478135171615
C            0.90760935849423        0.15045660300922        0.02349045848611
C            0.08007502887868        1.23824815142223        0.04173104247724
O            2.77782179961083        2.23253399189535        0.13299096609168
N           -1.26331726331896        1.02077003747286       -0.00424335834105
C           -2.16346925430833        2.15870289282267        0.03699658014980
C           -1.86734535995857       -0.23976275770004       -0.05109020664120
O           -3.05831519786814       -0.37723061723518       -0.07808197451559
N           -1.00459049298993       -1.33842518354227       -0.07097676922628
C           -1.55765307126648       -2.67611212887590       -0.12352762861999
H            3.50167678498898        2.86079513853967        0.18420990190641
H            4.24591899604613        0.69243958320192        0.10897914592367
H            0.41749161925221        2.25917071569184        0.08933654099724
H            3.49840818396094       -1.81889776334352        0.01170374100140
H           -1.74194256941961        2.98628276381359       -0.52955598494678
H           -3.11898172478258        1.86348766906951       -0.39531726017313
H           -2.33438275182792        2.47218842819036        1.06940462730898
H           -1.26038775208498       -3.24394603826944        0.75890240755696
H           -1.22454384049917       -3.18818805388511       -1.02711976457064
H           -2.64260227956854       -2.58719916794108       -0.14243749652420
H            1.25681122641930       -3.03687053037299       -0.07991317680842
