  25
        -42.10428605
 C          3.2367863420        1.1188538824        0.0275807973
 N          2.2771525562        0.0477077730        0.0097534440
 C          2.5410443047       -1.2562056407        0.0103195888
 N          1.3839857959       -1.9588579133        0.0107334517
 C          0.3501046986       -1.0704198954        0.0116556384
 C          0.9067664502        0.2025930400        0.0136821990
 C          0.1107930713        1.3920824694       -0.0022450381
 O          0.4899688133        2.5410908204       -0.0301788386
 N         -1.2946245490        1.0775443236        0.0175208675
 C         -2.1484476115        2.1100744496        0.0334301823
 C         -1.8646653279       -0.2284813575        0.0126531007
 O         -3.0538033968       -0.3862476252        0.0120882154
 N         -0.9783434905       -1.3025460175        0.0051056320
 C         -1.5170987214       -2.6498426650       -0.0033209613
 H          3.7090522460        1.1883850379        1.0087764490
 H          4.0074562532        0.9470418662       -0.7225658133
 H          2.7214349754        2.0557887955       -0.1798550996
 H          3.5204248156       -1.6911815826        0.0075530525
 H         -1.7357065807        3.1024518757        0.0420508303
 H         -3.1726764753        4.4230881818       -1.7395504459
 H         -3.2023599075        1.9087194804        0.0424385213
 H         -1.2379996898       -3.1788148620        0.9084378392
 H         -1.1636557069       -3.1937759216       -0.8790776738
 H         -2.6022584299       -2.5710146294       -0.0482661900
 H          1.3145483799       -2.9664024594        0.0117360529
