  72
        -99.29423789
 N         -1.8128819468        2.7452886518        2.5068365242
 C         -1.8187407601        2.1262769644        1.4233786992
 C         -2.9973367513        2.0373159614        0.4939000227
 C         -3.4897993024        0.5987151503        0.4376717878
 C         -4.4590274612        0.2339267645       -0.4989531149
 C         -4.9631418980       -1.0549925938       -0.5550901186
 O         -5.9075609028       -1.4855762868       -1.4151450852
 C         -6.5280245840       -0.5630787570       -2.2797741943
 C         -4.4758627372       -2.0375626734        0.3501448384
 O         -5.0212469392       -3.2623284932        0.2246340464
 C         -4.6460920246       -4.2772275672        1.1269677458
 C         -3.5094234515       -1.6697113717        1.2731162683
 C         -3.0271806922       -0.3680398337        1.3175028685
 C         -2.4766652280        2.4766496540       -0.8996739877
 C         -1.5712793260        1.4442195126       -1.5923824497
 C         -0.2184746923        1.3530875961       -0.9994308849
 N          0.4565027395        0.2314276067       -0.8033115918
 C          1.8464661495        0.2686466205       -0.4113383017
 C          2.7799471018        0.0530435672       -1.6165294767
 C          4.2109704778        0.0465243584       -1.1510167234
 C          4.9758566887        1.2170036323       -1.1887204754
 C          6.2869216832        1.2200257885       -0.7388430514
 C          6.8704676338        0.0731747901       -0.2258565087
 O          8.1204370222       -0.0290876036        0.2319143076
 C          8.9694229934        1.0955650310        0.2112496749
 C          6.1010806283       -1.1773615422       -0.1461524048
 O          6.5851955618       -2.2132452003        0.3290594544
 C          7.7419921137       -5.6853399453        1.8187792893
 C          4.7602870647       -1.1061217334       -0.6472028556
 C         -0.1242568913       -1.0651851514       -1.0545567154
 C         -4.1890273651        2.9444258023        0.9226694010
 C         -4.7907409016        2.4860418110        2.2488161327
 C         -3.8206834367        4.4229813984        1.0078533234
 H         -4.8379631219        0.9744502120       -1.1834849926
 H         -7.0149937281        0.2430331589       -1.7227748906
 H         -7.2811512878       -1.1322000761       -2.8211740414
 H         -5.8156065092       -0.1380336297       -2.9942612699
 H         -4.8812088431       -4.0019266758        2.1593940380
 H         -5.2311601086       -5.1499811923        0.8441522160
 H         -3.5805791826       -4.5137369306        1.0450997928
 H         -3.1327898273       -2.3886810003        1.9823425468
 H         -2.3015764037       -0.1137122666        2.0744636745
 H         -3.3317206672        2.6658203318       -1.5476484456
 H         -1.9314103086        3.4149447266       -0.7920348414
 H         -2.0683738471        0.4756587271       -1.6113796240
 H         -1.4485255172        1.7760547531       -2.6318397398
 H         -0.9332119443        1.6083049043        1.0058541397
 H          0.3194129670        2.2762942425       -0.8415220463
 H          2.0303456633       -0.5109770817        0.3316358432
 H          2.0706526024        1.2348291344        0.0444031664
 H          2.6195245213        0.8534410080       -2.3403853816
 H          2.5453222675       -0.8991753249       -2.0922844667
 H          4.5505314572        2.1261638997       -1.5852002453
 H          6.8515265494        2.1377270430       -0.7978671360
 H          8.5632427133        1.9109810025        0.8168593228
 H          9.1366499057        1.4480410452       -0.8109868538
 H          9.9129434556        0.7622436832        0.6387715919
 H          8.7023766607       -5.2725951487        2.0397239842
 H          6.9627684100       -5.6605968098        2.5501671268
 H          7.5431235545       -6.0909834904        0.8498724953
 H          4.1962224908       -2.0265855358       -0.6131499542
 H         -0.3538153511       -1.1952842717       -2.1134900869
 H         -1.0448869549       -1.1898279214       -0.4797580630
 H          0.5790393427       -1.8368430161       -0.7546120568
 H         -4.9569483974        2.8322655359        0.1487805163
 H         -4.0637172242        2.5989959843        3.0466339766
 H         -5.1042591034        1.4460044104        2.2007760447
 H         -5.6598057110        3.0948239420        2.4836338259
 H         -3.0420621258        4.5757081232        1.7487034863
 H         -3.4887091989        4.8160415282        0.0506235090
 H         -4.6958823494        4.9900233189        1.3138268592
 H         -0.9522979380        2.7635269722        3.0446566395
