  72
        -99.29461735
 N         -1.5807778761        2.7899378533        2.5885213538
 C         -1.6094493388        2.1566953967        1.5129493561
 C         -2.7886683047        2.0893661813        0.5861566159
 C         -3.3135720068        0.6598780727        0.5339604897
 C         -4.1884402300        0.2825071784       -0.4597080677
 C         -4.7338950901       -1.0365281829       -0.5671845429
 O         -5.5007993888       -1.3677621599       -1.4834212573
 C         -8.7922905414       -1.3688045856       -3.9303192003
 C         -4.3205456836       -1.9812267832        0.4766540585
 O         -4.8598904097       -3.1992146508        0.3503354693
 C         -4.6009297170       -4.1880663229        1.3182074003
 C         -3.4473466358       -1.5758615498        1.4705701778
 C         -2.9451652022       -0.2813979298        1.5029660634
 C         -2.2574591235        2.5171695727       -0.8071132341
 C         -1.3998475217        1.4561551847       -1.5204426099
 C         -0.0704112287        1.2512921560       -0.9079678702
 N          0.4955014182        0.0783479860       -0.6720750277
 C          1.8801832467        0.0022511153       -0.2682186060
 C          2.7954143731       -0.3931143939       -1.4435949505
 C          4.2348447887       -0.2868962195       -1.0238802570
 C          4.9199179785        0.9095685540       -1.1658242868
 C          6.2368682591        1.0282403173       -0.7507304013
 C          6.8957576230       -0.0506777141       -0.1782736330
 O          8.1663807303       -0.0520956967        0.2609938849
 C          8.9374186904        1.1219305895        0.1451288817
 C          6.2004822130       -1.2837732500       -0.0276847058
 O          6.9168511741       -2.2771829332        0.5314592403
 C          6.3291754344       -3.5455000271        0.6981391605
 C          4.8828558379       -1.3772040822       -0.4488101767
 C         -0.2110224048       -1.1676977594       -0.8587120436
 C         -3.9654000269        3.0172639840        1.0108803838
 C         -4.5757080744        2.5733310771        2.3379872597
 C         -3.5696752106        4.4885171375        1.0923935846
 H         -4.5216298184        0.9777665063       -1.2141965722
 H         -9.3471527530       -0.6463160284       -3.3708426583
 H         -8.8816263798       -2.4079223546       -3.6959285570
 H         -8.1268582102       -1.0531902371       -4.7048670213
 H         -4.9208234217       -3.8678502893        2.3151253916
 H         -5.1820918927       -5.0569380253        1.0129114146
 H         -3.5383369827       -4.4531055670        1.3459114789
 H         -3.1519937108       -2.2651864395        2.2474344373
 H         -2.2869949538        0.0030160556        2.3096978637
 H         -3.1080600455        2.7429378276       -1.4484979518
 H         -1.6751568732        3.4327148077       -0.6945586231
 H         -1.9600861287        0.5261056503       -1.5967948466
 H         -1.2298398365        1.8275353963       -2.5393041150
 H         -0.7394833216        1.6044905351        1.1014147845
 H          0.5533201528        2.1238203909       -0.7718608860
 H          1.9821238667       -0.7291864028        0.5378774552
 H          2.1990150189        0.9753856860        0.1114389724
 H          2.6032108321        0.2837353107       -2.2779691228
 H          2.5671747976       -1.4100690056       -1.7639402768
 H          4.4320945490        1.7606903227       -1.6162119544
 H          6.7456226541        1.9689580493       -0.8823034991
 H          8.4977937512        1.9472181983        0.7133521570
 H          9.0573961050        1.4203749352       -0.9005172835
 H          9.9108376221        0.8739290254        0.5636549039
 H          7.1000122218       -4.1670042432        1.1494919438
 H          5.4632935242       -3.5020259517        1.3664628341
 H          6.0310515838       -3.9785516918       -0.2616008491
 H          4.3493896497       -2.3090678823       -0.3452465188
 H         -0.4364502450       -1.3404889854       -1.9129665193
 H         -1.1483216759       -1.1624351217       -0.2967067239
 H          0.4054049521       -1.9867966938       -0.4976778268
 H         -4.7332557346        2.9102420008        0.2363268517
 H         -3.8456183935        2.6685830076        3.1360674314
 H         -4.9160339124        1.5418327640        2.2884218431
 H         -5.4302692018        3.2017989556        2.5741524406
 H         -2.7771326970        4.6261368090        1.8218875665
 H         -3.2443730291        4.8767278139        0.1307574538
 H         -4.4293321912        5.0711665965        1.4127595622
 H         -0.7168087897        2.7908665762        3.1215648389
