  25
        -42.19713193
 C          4.4946931777       -0.2260569897        0.1344944920
 N          3.9153282683       -1.3113948161       -0.1725872065
 C          2.9037179757       -2.0894371546       -0.0094059944
 N          1.6056559553       -1.7031231930        0.0214405118
 C          1.1622238638       -0.4141750448        0.0008576578
 C         -0.1358138361        0.0072746607       -0.0018438601
 C         -0.4536475858        1.4528012199       -0.0081053640
 O          0.3174131336        2.3834001732       -0.0050524882
 N         -1.8309656630        1.5161813949       -0.0059764167
 C         -2.5993055264        2.7321520338       -0.0167455083
 C         -2.3903839600        0.2523703589        0.0053892526
 O         -3.5560676033       -0.0332774717        0.0174435228
 N         -1.3316192793       -0.6613170637        0.0080620404
 C         -1.5923724457       -2.0760596219        0.0120336720
 H          4.3501023628        0.2735396845        1.0878268605
 H          5.2469598462        0.1616821069       -0.5373517519
 H          1.9252040357        0.3502741617       -0.0233968428
 H          3.0916501185       -3.1548884530       -0.0259455477
 H         -1.9561033517        3.5465661888        0.3150802869
 H         -2.9617871666        2.9468790891       -1.0251457069
 H         -3.4581620127        2.6236840880        0.6461316607
 H         -1.1915998769       -2.5494106844        0.9112338397
 H         -1.1943567348       -2.5536276242       -0.8862002655
 H         -2.6776298348       -2.1958750743        0.0139358990
 H          0.9080792927       -2.4385757058        0.0082451888
