25
 energy: -42.128948244138 gnorm: 0.007333735954 xtb: 6.6.1 (8d0f1dd)
C            3.78408804955811        0.92509778692844        0.13005274181291
N            2.70264588640260       -0.01366295947023       -0.00306727369108
C            2.77372167083757       -1.29350303334226       -0.35172311943471
N            1.55488632683798       -1.83334543733756       -0.36310641704927
C            0.63496986556813       -0.87812938532875        0.02001096418286
C            1.35514999578007        0.33967497150819        0.25574424113105
C           -1.47124968719087       -0.08904106149645        0.83100372737966
O            0.98623001257470        1.45410483264972        0.56728335742987
N           -2.52547269730349        0.58602048078235        0.10612619044267
C           -2.68748770982819        1.84911923867241       -0.55009207867878
C           -2.97288406231966       -0.23113920023625        1.02341779357997
O           -3.84225053377659       -0.79511747255705        1.58409726289582
N           -0.71730093683274       -1.06720031427054        0.07794266221070
C           -1.34559267103350       -2.05914142610713       -0.50859068966203
H            4.36970233113395        0.71165978548015        1.02540007816793
H            4.43422696855579        0.88907384478869       -0.74262757461927
H            3.34229890407946        1.91741049598379        0.22394685710589
H            3.67751462148142       -1.81920448710837       -0.59535751690900
H           -1.71642996803156        2.34113905711559       -0.59797980708454
H           -3.06497673822522        1.68473141653937       -1.56081868446468
H           -3.39100780011145        2.47639508158452       -0.00375718297048
H           -0.85762278482045        0.45915333017306        1.53102071832750
H           -0.81575605466376       -2.74411397120917       -1.14235797523286
H           -2.40103358202809       -2.18851028289024       -0.36762799922154
H            1.35406210745763       -2.80323274925033       -0.55776865774794
