25
 energy: 1.157303522143 xtb: 6.6.1 (8d0f1dd)
C            3.29907948070230        1.13443511221878        0.11246177226637
N            2.32659531739871        0.08969423139934        0.03410629309989
C            2.61896447850113       -1.26720855900039       -0.00155005172132
N            1.42403817241341       -1.95463775554072       -0.05483358988090
C            0.41643100962063       -1.06217025536192        0.01148902922881
C            0.91829885553566        0.23044516294561        0.07792793590295
C            0.07771856089107        1.38563966664030        0.07164308870002
O            0.47180211267631        2.55400560893777        0.11913635369896
N           -1.36696537614886        1.10748889486605        0.00698109876285
C           -2.36611178099299        2.24667419916374       -0.14354134857650
C           -1.84669738927726       -0.17941971565480        0.03128842557962
O           -3.03206377078381       -0.44222168670112        0.04154811150197
N           -0.92935193011008       -1.27936241854026        0.03373072389020
C           -1.41464054082379       -2.64753387168221       -0.03683047096181
H            3.82053339187638        1.12737838273913        1.07925427212182
H            4.05075064874240        1.01848253024586       -0.67503216037551
H            2.77837590230628        2.07834214586041       -0.00557287660271
H            3.59268108302214       -1.70731609325240       -0.03452987094559
H           -1.82987685539674        3.19737366219179       -0.14214857098677
H           -2.96184499536103        2.20347254750266       -1.05813934291215
H           -3.04415793304181        2.24146441968840        0.71312670557463
H           -1.07747449588973       -3.22282002993903        0.83074786107081
H           -1.06962173417472       -3.15903572375854       -0.94367760251322
H           -2.50204235556845       -2.61103949926123       -0.04173416116971
H            1.35385488491928       -2.95927756309926       -0.10867507518078
