25
 energy: 54.596776125909 xtb: 6.6.1 (8d0f1dd)
C            3.44285612045612        0.95241353041460        0.12948143297516
N            2.53188463123533       -0.15808438067459        0.03952680906589
C            2.84345296972613       -1.43828108111038       -0.08961864876079
N            1.70577555473812       -2.17901871381881       -0.11101817093355
C            0.63629993191040       -1.32549444550535        0.03135725370773
C            1.17282560097536       -0.04397072123472        0.12759379530409
C            0.27850322028914        1.13237864552962        0.24147957980377
O            0.70588357914198        2.27831568666116        0.25180786669762
N           -1.01602494235048        0.79519481244059        0.31541391759707
C           -3.67497600481156        3.69036716983507       -0.38619462407228
C           -1.59931298485703       -0.35386043253272        0.21285538281962
O           -2.76182822092579       -0.65002033890477        0.22871868909950
N           -0.65340243823747       -1.59670120297254        0.06992905006375
C           -1.21869056021368       -2.91415840179856       -0.02502750866761
H            3.95345043450415        0.94933083290944        1.09258961834374
H            4.18529825688730        0.90224723470836       -0.66623939487681
H            2.85934122467395        1.87335967854055        0.04655915180274
H            3.83040068574880       -1.83953507028039       -0.18093484018024
H           -2.78534659571943        4.28833783333444       -0.33847291326701
H           -3.94478679512650        3.21675268910533       -1.31071627699730
H           -4.09651995560373        3.32667759652967        0.52637166692372
H           -0.91981451150460       -3.53880127599753        0.82242667963917
H           -0.94245930019316       -3.40336293937192       -0.96333748609209
H           -2.30372628947613       -2.77753171868129       -0.00441809914892
H            1.65230016753787       -3.17913079256727       -0.21722053255410
