25
 energy: -5.548088159064 xtb: 6.6.1 (8d0f1dd)
C            3.26185390694830        1.16295248138170        0.09567647525496
N            2.31201112215529        0.10006652366630        0.03708471233922
C            2.60815269098865       -1.24750585275936        0.02485771516573
N            1.42315767842704       -1.94571009039401       -0.01170346400388
C            0.40615986332860       -1.06159664561798       -0.00121276316381
C            0.91960647516075        0.22788791938828        0.03562264553673
C            0.10345909096366        1.38610021082983        0.01805134162523
O            0.49016599754327        2.55924787666534        0.03167242960994
N           -1.30118017997816        1.06756108458688       -0.01768483154655
C           -2.26843159963445        2.18056849823164       -0.07544776180462
C           -1.82692164394305       -0.19279156737131       -0.02220292624365
O           -3.02256217452184       -0.40521641280429       -0.03778092150589
N           -0.93510215540286       -1.29515147144344       -0.01251891529199
C           -1.45262408794407       -2.64584510128676       -0.05307163925298
H            3.75625013638022        1.19397892703225        1.07306210160437
H            4.02484850599749        1.03332538845462       -0.67591225597185
H            2.72384372871388        2.09318091001816       -0.06203328471928
H            3.58505579791102       -1.66913723125746        0.02542372861666
H           -1.72188129153991        3.12313220619004       -0.05814606575960
H           -2.87398929417162        2.13494801416745       -0.97926955456312
H           -2.93343948763552        2.13286779231378        0.78710311696409
H           -1.14076167760942       -3.20871652189742        0.83051604016005
H           -1.11989528088238       -3.17236908770123       -0.95256919929891
H           -2.53845778058983       -2.57214209442234       -0.06454204150260
H            1.36153467315666       -2.95048448273496       -0.04065840064152
