25
 energy: -42.521871120824 xtb: 6.6.1 (8d0f1dd)
C            3.30891068419509        1.80861348243478        0.10911638364004
N            2.37326464989099       -0.12145219203745       -0.05890655491674
C            2.57823726647078       -1.41870436259339        0.01873867964405
N            1.39257407320832       -2.12853861851226        0.02901589490125
C            0.39476042761416       -1.20691374964609       -0.01300296211291
C            1.00492905533770        0.04369487840165       -0.02569003557286
C            0.19547286479045        1.24191177693192       -0.02807146713273
O            0.56354481418493        2.39689007096858       -0.03093076709762
N           -1.19357542422802        0.96092144368548       -0.03433623707779
C           -2.09323371599427        2.11134690640951       -0.04450113564010
C           -1.79507587862928       -0.26357235434514       -0.04894265132540
O           -3.00073757319420       -0.38628564837116       -0.06415289255898
N           -0.95898988778842       -1.39216990584513       -0.03971901627838
C           -1.60532654608443       -2.68270924200276       -0.06291628598374
H            3.70774785992483        1.73511310434774        1.08702109650326
H            4.00070526158944        1.65768136519203       -0.68729706890057
H            2.48781395528305        2.47824961197622       -0.04074515788883
H            3.53114881070589       -1.92055402412821        0.04704480317236
H           -1.48413652874714        3.01044785591024       -0.01970286682982
H           -2.69768624414865        2.10892235818976       -0.94956365214328
H           -2.74431024304693        2.08858683870874        0.82705617857561
H           -1.35901598038000       -3.26112648223996        0.82867656997271
H           -1.32995592332789       -3.24229285796528       -0.95867612336957
H           -2.68060540801198       -2.49070473826678       -0.07842708113834
H            1.28268474434023       -3.13246206306750        0.02609689077695
