25
 energy: 43.578941739540 xtb: 6.6.1 (8d0f1dd)
C            2.91483061521478        2.16027353037537        0.56523502326648
N            2.37255714196792       -0.23671744589251       -0.31960932044598
C            2.58895433324279       -1.45690492373338        0.03978887364832
N            1.42246861602516       -2.18865608210770        0.14152512618891
C            0.41020338472711       -1.32796618750110       -0.13234694361340
C            1.02406858905419       -0.11154069872392       -0.40671768948836
C            0.28015528102343        1.07676246439452       -0.65870353430577
O            0.67020139670513        2.10105996287584       -1.16671237188465
N           -1.04883726303348        0.88015403872319       -0.23321992877559
C           -1.78250576056969        2.10304754607266        0.04012550723079
C           -1.69806617058242       -0.31279791521910       -0.05871479404037
O           -2.88126026996884       -0.31947523534171        0.20120540272069
N           -0.95101860779296       -1.50996529902469       -0.11493967433639
C           -1.79606099176425       -2.70374744136856       -0.11148777320290
H            3.87452267296365        2.00463154055331        0.97236229807700
H            2.80177358253419        2.32610725523535       -0.47685570729756
H            2.02162787538555        2.16755496535390        1.09900201012516
H            3.56816274638363       -1.85763721384467        0.21473820678588
H           -1.05720777977682        2.88170308553237       -0.16598207606672
H           -2.67936596195301        2.17634506551546       -0.53961942054066
H           -1.97805663428835        2.16956352028158        1.11834479684718
H           -1.72382811208860       -3.37938916514194        0.73460766753614
H           -1.65312978362754       -3.29923648751226       -1.00980606844309
H           -2.79799144467316       -2.28497175633701       -0.03480845511220
H            1.35248107147141       -3.16753869183073        0.34813833215819
