25
 energy: 34.647220547313 xtb: 6.6.1 (8d0f1dd)
C            3.37189304027276        3.61068211895739        0.41895536263421
N            2.32646197037331       -0.81744656327633       -0.09466049265886
C            2.36527760739885       -2.09196174299915       -0.14046875449515
N            1.11211137867208       -2.64346681131690       -0.20947573740834
C            0.24842758006070       -1.58411997413897       -0.17054688714058
C            1.02464961984172       -0.44005154028817       -0.15294535584411
C            0.41429125506719        0.87054351757124       -0.15340738249361
O            0.93398660498774        1.95386714552532       -0.23536184158937
N           -0.96679847202490        0.75182637712091       -0.03195805029010
C           -1.68323541415484        2.02572206795349        0.09698390900165
C           -1.75948241340379       -0.37191703790509       -0.03383037594414
O           -2.96229541771148       -0.30576033842597        0.04654588835706
N           -1.10264642339755       -1.59060081482508       -0.15299056329158
C           -1.84034724825640       -2.82726492537771       -0.18703035359975
H            4.12296888026236        3.74464042221385        1.18240687708326
H            3.58475644043089        3.78047696458463       -0.62643075560105
H            2.60450852004909        2.90403436841909        0.62694522447838
H            3.26484214329155       -2.63592118161944       -0.06336939862209
H           -0.98380010961696        2.83303898737806       -0.11003362106417
H           -2.51901491303257        2.06951013703742       -0.61606013679194
H           -2.07082067553241        2.10869258538187        1.11070465317262
H           -1.51904935420591       -3.47650884661717        0.62254111673692
H           -1.69808647714279       -3.28821747651388       -1.15482923030313
H           -2.88687985239012       -2.57743866679011       -0.07250293173871
H            0.84322222940350       -3.59297057575684       -0.04381127305166
