25
 energy: 44.746446389661 xtb: 6.6.1 (8d0f1dd)
C            2.91500363826973        1.98917413985142        0.47818121242391
N            2.37478104916374       -0.17179400832685       -0.27280246348086
C            2.61632832491876       -1.40026692157890        0.07238224642264
N            1.45953369372254       -2.15408622750444        0.17019606030200
C            0.42653106101967       -1.31822084988134       -0.09869345679350
C            1.02195635825110       -0.08552839234638       -0.34758563808805
C            0.27520441577685        1.09203809262835       -0.57921207839209
O            0.67120945002732        2.13635876661798       -1.04202598318952
N           -1.06027889339353        0.88152316031786       -0.19194987105726
C           -1.81794344696956        2.10647700234276        0.02916719950902
C           -1.70100166390782       -0.31866368701848       -0.05549021141883
O           -2.89552131251769       -0.34392245524775        0.15016465727580
N           -0.93541497588910       -1.50329556412461       -0.09337896806413
C           -1.77730019342264       -2.69873827361437       -0.09662276151838
H            3.84493868101690        1.85633789434950        0.95870279063182
H            2.89730971300062        2.29292649656873       -0.55804914899672
H            2.01298842368909        2.20309498379684        0.95052731059108
H            3.60326396273067       -1.79890881172687        0.21800080759599
H           -1.10062467895923        2.90089043132040       -0.13495296808084
H           -2.66998089437501        2.16842831508594       -0.61016349547232
H           -2.07610884116435        2.18224417356616        1.08887393598148
H           -1.71074549206784       -3.35297624091426        0.77281754204433
H           -1.60475489826961       -3.29628823089627       -0.99180037904390
H           -2.79458985129519       -2.27605352450735       -0.06245145358170
H            1.43332052652740       -3.14527092026974        0.31689054071433
