25
 energy: 48.631621246295 xtb: 6.6.1 (8d0f1dd)
C            2.95955058491321        1.68154466691031        0.29186463922374
N            2.41506045726055        0.00966912572371       -0.10518440922726
C            2.69862480465100       -1.32139032630198        0.17159701778530
N            1.53383798817196       -2.09814063384066        0.13651138804500
C            0.47050552235129       -1.27256270814071       -0.03011881771496
C            1.03034588165507       -0.00317006464628       -0.15208592931385
C            0.24210786911012        1.13712532853841       -0.32992390156518
O            0.60943996177447        2.25904546427724       -0.67416877872072
N           -1.12315145779728        0.90673829633293       -0.08999147213267
C           -1.93271189076612        2.11245014269705       -0.00417578111025
C           -1.73334873777870       -0.29835143618036       -0.05132525767629
O           -2.93868130382768       -0.38634773463557        0.02441649479205
N           -0.90462207821472       -1.45032342325113       -0.05747060543916
C           -1.67062253800095       -2.69012228433024       -0.07957132962062
H            3.69067021616818        2.01327446814284        1.01691610329557
H            3.38201691246912        2.05786225421327       -0.68315732003273
H            2.03533231423050        2.18938318396286        0.43146484797490
H            3.62050209895867       -1.87568116723625        0.16442568523304
H           -1.25264704215227        2.94493565988938       -0.07765649119467
H           -2.62658264438985        2.16939018143117       -0.80777671061595
H           -2.36045650476594        2.20733403361139        0.97898124160296
H           -1.53461803526245       -3.31744057314833        0.80326667072958
H           -1.44633460305545       -3.26921986218165       -0.97638937376785
H           -2.72284402965735       -2.35712515050233       -0.08339349735772
H            1.57020284423253       -3.11156866278116        0.13482440480032
