25
 energy: 37.212515664681 xtb: 6.6.1 (8d0f1dd)
C            3.16079811927922        3.24098214640863        0.59188765139385
N            2.36012946757219       -0.67233035404985       -0.29551369868020
C            2.43144527837880       -1.93160717994318       -0.12312134785728
N            1.18801675560838       -2.52331685399493       -0.09485338132522
C            0.30155996266841       -1.49625514738077       -0.22477820829152
C            1.04574121877216       -0.34371849178580       -0.35981298483381
C            0.41552056678800        0.95654541056553       -0.41304055971090
O            0.90026880893311        2.04880766388177       -0.60530692200699
N           -0.94338094569801        0.82499946660471       -0.13596962383043
C           -1.63201797128485        2.09718886818135        0.08552843329902
C           -1.71289919185307       -0.31168107031410       -0.02635808872310
O           -2.90353390091041       -0.26946084738897        0.17555027887101
N           -1.04750992543631       -1.52326148826326       -0.17522245498971
C           -1.76139166609726       -2.77290430055153       -0.16149966062163
H            4.10272011411632        3.26147184327546        1.12058100832944
H            3.04187447931927        3.52785376188345       -0.43925688256552
H            2.43235915029975        2.56716017804943        0.94750372546249
H            3.33717368669973       -2.43963600802865        0.07394054046586
H           -0.99209318744481        2.87818743206897       -0.31352545448395
H           -2.59393134467735        2.10151584249643       -0.43085003843350
H           -1.78886518691437        2.22393305040673        1.15373810276311
H           -1.32807717216843       -3.43370975972272        0.58500616974716
H           -1.77331400985983       -3.22702596054700       -1.14140781417435
H           -2.79693327610797       -2.56273692886578        0.06522590962378
H            0.92315963969150       -3.45271314248531        0.18590302951883
