25
 energy: 38.899280365174 xtb: 6.6.1 (8d0f1dd)
C            2.96249376471139        2.84023193245972        0.70706583945095
N            2.37827542627660       -0.52184659429784       -0.43061706691584
C            2.49221307746715       -1.74475684203769       -0.07395498228268
N            1.27272049560366       -2.38654384477448        0.00889138461348
C            0.35057710571147       -1.42102157065847       -0.24930120687046
C            1.04551924597357       -0.26704895950779       -0.53894238085925
C            0.36658873262731        1.00225246121687       -0.66541716326310
O            0.80225523414085        2.07643968122481       -1.00854571228569
N           -0.96662088817640        0.87375915397309       -0.23404372420156
C           -1.65994518066222        2.11891295040243        0.09504456627806
C           -1.68283962655544       -0.27698945444824       -0.02213643897887
O           -2.84787492009550       -0.24643953048963        0.29793560889615
N           -0.99655002965754       -1.48818634585974       -0.17011670642263
C           -1.76843791330939       -2.70770429916755       -0.14019462255871
H            3.99636348113074        2.78146278321063        0.99979109830586
H            2.57749307581128        3.16310322303940       -0.23537080400393
H            2.28656426641195        2.25502954349477        1.27023730364614
H            3.41071985021881       -2.21338706355106        0.17653507981623
H           -1.06453122985124        2.91553959126622       -0.34988489769678
H           -2.66837855396126        2.14994904127634       -0.28498002057241
H           -1.59424639154295        2.26835251162619        1.17389703817389
H           -1.47420458790728       -3.38981504461475        0.65127805409286
H           -1.81914436986679       -3.27786349110485       -1.06658250956239
H           -2.78670540447670       -2.43355812197828        0.07672534254877
H            1.04751928058101       -3.29896955756390        0.37719372230903
