25
 energy: 32.931748265769 xtb: 6.6.1 (8d0f1dd)
C            3.43619260462089        3.67874463681799        0.35436151903361
N            2.31686796993222       -0.85690056525595       -0.03197924655796
C            2.34497492229412       -2.13448896014661       -0.13393993942502
N            1.08404111718419       -2.66341620650346       -0.21246818267852
C            0.23145163981008       -1.60724710707889       -0.15618832707592
C            1.01743769250927       -0.46809277028306       -0.08941669546005
C            0.41256012496810        0.84556296025826       -0.06748195038993
O            0.94906607634069        1.92539114103676       -0.06911211103279
N           -0.97824182161557        0.73803598440658       -0.02209050021773
C           -1.70013225421745        2.00291796166457        0.10310630171828
C           -1.77247055861752       -0.38600025890155       -0.04165385350517
O           -2.97706463021865       -0.31392212129678        0.00385113395386
N           -1.12101168975519       -1.61018624847306       -0.14826973448331
C           -1.87327138070889       -2.83919684928986       -0.19053681211480
H            4.05964667478383        3.90390209063737        1.19239840061299
H            3.79805486972437        3.80261167493640       -0.64462333439055
H            2.64846694903563        2.99155533102311        0.51238862662542
H            3.24621187764412       -2.68991171103099       -0.11374733055620
H           -0.99895125651317        2.82089602074823       -0.04239918623815
H           -2.48128012132432        2.05854710939771       -0.65609029768892
H           -2.15815097221909        2.06761396857535        1.08603052846342
H           -1.58438314051273       -3.48395980035405        0.63546914682372
H           -1.71645534366055       -3.32809141580038       -1.14577768506141
H           -2.91972187991166       -2.57239324614374       -0.10423719210594
H            0.82564052233114       -3.62664950870168       -0.12378053654234
