25
 energy: 10.054886130262 xtb: 6.6.1 (8d0f1dd)
C            3.07343303740546        1.41484362654439        0.11269112131268
N            2.41960792919185        0.06691038263758        0.06972080976315
C            2.68465104238288       -1.33073946012003        0.05363431894546
N            1.47942961165584       -2.04009671046775        0.01846874498231
C            0.44864029353091       -1.17093845750191       -0.01013657699371
C            1.01128121374739        0.09571743328355       -0.00232771092419
C            0.19269695678322        1.22641943623145       -0.09383376526317
O            0.56246734303390        2.39116013963969       -0.26056127851961
N           -1.20446664984814        0.95857288866170       -0.04537800185547
C           -2.07645159645027        2.12171867480725       -0.04044857411858
C           -1.78267299930849       -0.26009197327305       -0.05681451485921
O           -2.98160876024959       -0.42430231127658       -0.07827513408325
N           -0.91404924761259       -1.37409433996435       -0.04425123053289
C           -1.56835643979706       -2.66360147650868       -0.06644987961325
H            3.62258449876413        1.64542022462190        1.03686219860849
H            3.79902473818040        1.60073521772113       -0.70668815729929
H            2.27674386801062        2.15567253256829        0.03809113618577
H            3.60859386946801       -1.85734702711486        0.05494854576927
H           -1.45325543765707        3.00310994205540       -0.04041233856739
H           -2.67614619816476        2.15447976104541       -0.93430345103632
H           -2.64245612647332        2.16228763762793        0.87639195267206
H           -1.35347549984657       -3.25431337309442        0.82542229347962
H           -1.29669208019681       -3.22274875292432       -0.96274315114065
H           -2.64107395583273       -2.44741080442923       -0.07860866003981
H            1.38460112248258       -3.04975621609134        0.01723021706062
