25
 energy: 29.921454845709 xtb: 6.6.1 (8d0f1dd)
C            3.60986955041806        3.73552788557614        0.29541394359568
N            2.30940016312152       -0.88732998895515       -0.04935359781687
C            2.32446164061715       -2.17522141440238       -0.13754181446398
N            1.05882552899515       -2.71753191972713       -0.18333783335556
C            0.20587787147476       -1.66262662268913       -0.11635059109819
C            0.99374023784984       -0.52301744124467       -0.03296711570169
C            0.40132710381315        0.78885081797414        0.05210658897952
O            0.97257792641574        1.84964191741810        0.13489946702637
N           -1.00367494182794        0.71899084077863        0.02552437946371
C           -1.73989838883045        1.97399349433164        0.09676322375901
C           -1.79339957380089       -0.40704987267903       -0.05304163128439
O           -3.00166947673112       -0.34278824041493       -0.06131409871784
N           -1.14899720717958       -1.64335002175069       -0.12421023422929
C           -1.93855097223492       -2.85370711443710       -0.19417159701321
H            3.92822159395986        4.16722548882335        1.22092989893578
H            4.15216716735415        3.95160114411859       -0.60098028345919
H            2.76093810970536        3.08575607409415        0.26659481498364
H            3.21323014595991       -2.77191332918122       -0.17359498982554
H           -1.02073591165117        2.79000918461713        0.08065489774673
H           -2.42112693047557        2.04788273777146       -0.75009174192698
H           -2.32650982272105        2.00848594593236        1.01471536607207
H           -1.70773286187941       -3.50963540860711        0.64703349267023
H           -1.75658851806566       -3.37878557847849       -1.13367889495849
H           -2.98672994447659       -2.56101028182955       -0.14548349382159
H            0.82719181519445       -3.69496950830908       -0.25148424336606
