25
 energy: 30.878476528360 xtb: 6.6.1 (8d0f1dd)
C            3.53729240343415        3.70569325194030        0.30646983815557
N            2.31934523977507       -0.87591448911605        0.00756032615012
C            2.33268197894897       -2.15556422615127       -0.12871672446831
N            1.06428317604104       -2.69354272541555       -0.20590139230746
C            0.21830024310742       -1.63551873658040       -0.13575463942151
C            1.01121550647170       -0.49584447338472       -0.02750832305689
C            0.41136850127406        0.81896322173935        0.01796424800920
O            0.96365302837291        1.89248379565093        0.07811949182310
N           -0.98877903743309        0.72836960554180        0.00651980887979
C           -1.72133444339341        1.98460228138404        0.10088436295286
C           -1.78219351369709       -0.39474995731513       -0.04458016156353
O           -2.98960615262531       -0.32338866140917       -0.03910694385758
N           -1.13569819105437       -1.62480963926913       -0.13633060175674
C           -1.90913649468952       -2.84548065401379       -0.18860119012983
H            3.98848773392114        4.07922511823845        1.20942181825571
H            4.03002077741679        3.85035197984607       -0.63540966153878
H            2.69942733373746        3.07164611569057        0.37635174055652
H            3.22230577733156       -2.74656031293771       -0.14707360601805
H           -1.00914970565256        2.79715941668225        0.02021870568525
H           -2.43423833241221        2.04636338532158       -0.72085461795579
H           -2.25727459100987        2.04389978345216        1.04522620225112
H           -1.64943229574456       -3.49299099859511        0.64803259779947
H           -1.73909838501951       -3.36365076884236       -1.13021347273636
H           -2.95781304970757       -2.56699241413821       -0.12364118191095
H            0.81469348125454       -3.66811834923275       -0.19432120262311
