25
 energy: 37.538596590977 xtb: 6.6.1 (8d0f1dd)
C            3.09257171274940        3.11824907171901        0.64190100065460
N            2.36760456687036       -0.62787703168874       -0.35524772018825
C            2.45092110396737       -1.87504885314721       -0.11096329349347
N            1.21343160864782       -2.48073899383616       -0.05896765381886
C            0.31735208100170       -1.47064417396569       -0.23891089231723
C            1.04770731318542       -0.31825293484950       -0.42586057472574
C            0.40450079415348        0.97435035241781       -0.50078380190690
O            0.87250638807910        2.06328870740987       -0.74315691508894
N           -0.94511439598745        0.84382352907690       -0.16983639258929
C           -1.63442563600366        2.11121685281066        0.08281798758967
C           -1.70097914369778       -0.29678509574750       -0.02362591370083
O           -2.88466415181648       -0.26019831807103        0.21779051018496
N           -1.03140546798671       -1.50763174407487       -0.17934762835830
C           -1.75005807209108       -2.75409115544215       -0.15239370351285
H            4.07898945966930        3.10028997034536        1.08151551950834
H            2.87312455305040        3.42633330283740       -0.36373592263785
H            2.38221223154188        2.46654507606433        1.06589107160837
H            3.36072536961843       -2.36733735978368        0.11109025768073
H           -1.01620168540331        2.88872895865338       -0.37405511123649
H           -2.61990523599933        2.11009468247313       -0.36805254343563
H           -1.69844257125333        2.25737248679634        1.15742462600575
H           -1.34008143596952       -3.42019615354730        0.59847448122198
H           -1.80209780680007       -3.24304938620288       -1.11773174935970
H           -2.77657810932962       -2.53392978724224        0.09753037058397
H            0.95523777648842       -3.40268701839789        0.25667202869218
