25
 energy: 38.788574244753 xtb: 6.6.1 (8d0f1dd)
C            2.92697124177341        2.68290854967851        0.71771093407768
N            2.37731565099968       -0.45288761549729       -0.42380012560791
C            2.51408598987433       -1.67066423197382       -0.04823702081088
N            1.30739611934537       -2.33556174301654        0.04135304362087
C            0.36642544967735       -1.39476393564799       -0.23357263983314
C            1.03929379644426       -0.23131954594909       -0.54654650432510
C            0.33528715517189        1.01357289345954       -0.73785944163958
O            0.75559092492007        2.07341055653155       -1.13688234988544
N           -0.99650675783108        0.88188146088497       -0.26751784744761
C           -1.70240079862550        2.10898390832666        0.08615668475685
C           -1.68510136892513       -0.27836627128696       -0.03474602644082
O           -2.84137309829352       -0.25209974311118        0.31797322291779
N           -0.98228105828040       -1.48577476388326       -0.16120293509649
C           -1.77647392004412       -2.69953469190157       -0.13432933286882
H            3.96508666615017        2.61954737829586        0.97575613014622
H            2.55449064474654        2.95264476946278       -0.24324109290620
H            2.24578684680662        2.14952027098636        1.33886898229335
H            3.44560605705300       -2.12607842616620        0.18834366459289
H           -1.07557980034346        2.91256937683707       -0.28656915478473
H           -2.70549388418139        2.17482834464745       -0.32724860621928
H           -1.68577513468475        2.21047185204085        1.17936235234193
H           -1.53968718446385       -3.38226370948104        0.67575211478007
H           -1.77887597934424       -3.29119333926977       -1.04649670528816
H           -2.79128734708115       -2.38864671249806        0.05038840825696
H            1.11302098902994       -3.25833019395836        0.39849364606983
