25
 energy: -4.721313835389 xtb: 6.6.1 (8d0f1dd)
C            3.20496741969576        1.26246935301514        0.09523847852462
N            2.34723047545587        0.09802370545095        0.03234622621188
C            2.62099973001989       -1.26817561972817        0.03429421876545
N            1.42041001783295       -1.96369280298043        0.00429789828616
C            0.40783055586463       -1.08426509473361       -0.01259356644986
C            0.95109838715608        0.18948515909819        0.00475889367313
C            0.13917534918427        1.33343366043362       -0.02040472569012
O            0.52716940012053        2.50264189058379       -0.04933919074138
N           -1.25612963924857        1.01805462931955       -0.03287796526453
C           -2.17843045868383        2.13692912496895       -0.04632566614204
C           -1.82207935252744       -0.21681822183471       -0.04942651027469
O           -3.02313723795734       -0.40308926504855       -0.07152007092893
N           -0.93948200280430       -1.31489444101633       -0.03991024040278
C           -1.50445480122002       -2.64194031275278       -0.06258797898159
H            3.72208194052114        1.36304600674181        1.05949494539358
H            3.98005483391391        1.23910732499281       -0.68319697617435
H            2.56719634861308        2.13808971152320       -0.04262582811874
H            3.58363602150697       -1.71742112943196        0.04532770892473
H           -1.59968555553592        3.05482000355641       -0.02921521804358
H           -2.77808247779869        2.11019299551748       -0.94980771417645
H           -2.80435115024522        2.10574218252180        0.83829395119716
H           -1.23038350021881       -3.20684106126756        0.83038274455722
H           -1.19386509094153       -3.18355430761869       -0.95851077481780
H           -2.58677750062603       -2.51497644305087       -0.07672630931135
H            1.31019274651284       -2.96306240879012       -0.00827642346706
