25
 energy: 1.135214144251 xtb: 6.6.1 (8d0f1dd)
C            3.13994079352563        1.33595840119704        0.10302417157237
N            2.38680447426225        0.07370948783260        0.04920459748861
C            2.64844657301782       -1.30831020303570        0.04131061990032
N            1.44206581447420       -2.01068635066635        0.01085020159224
C            0.42664623205143       -1.13022387113978       -0.01168282348362
C            0.98185732753012        0.13714130988767        0.00127257785479
C            0.16867782869490        1.27418227269580       -0.04835552350166
O            0.55089983956210        2.44046635429344       -0.13851667048397
N           -1.23370035334575        0.98427765247719       -0.03821110897869
C           -2.12789951266393        2.12698598087767       -0.04404073661271
C           -1.80610216336853       -0.24192004356708       -0.05308458602308
O           -3.00523483834675       -0.42721895043660       -0.07675100924582
N           -0.92748966978947       -1.34512063368875       -0.04168343887762
C           -1.53667598659328       -2.65321925695452       -0.06376865172624
H            3.67864353442815        1.50481751272633        1.04807894659559
H            3.90029661268754        1.42590646509819       -0.69433291595658
H            2.41671732758658        2.14619998282367       -0.00217082212512
H            3.59390921263240       -1.79221301376690        0.04820063198082
H           -1.52635151701098        3.02656763101352       -0.03513737810454
H           -2.72760662027453        2.13136194454651       -0.94329481123651
H           -2.72456552844674        2.13521991451816        0.85683079211286
H           -1.29229611494356       -3.23079650212149        0.82912385216775
H           -1.24646465920680       -3.20336594314097       -0.96029426011453
H           -2.61441990821799       -2.48033162293549       -0.07666129211484
H            1.31428106852698       -3.01468980410152        0.00747779953310
