25
 energy: 39.195239679310 xtb: 6.6.1 (8d0f1dd)
C            2.91253644769170        2.51289913019670        0.69555796938688
N            2.37387887973727       -0.37743665069611       -0.39933034457732
C            2.53674184389905       -1.59430246396883       -0.02046921713601
N            1.34395420433692       -2.28184397241649        0.07441456212845
C            0.37955016260223       -1.36749984188438       -0.20522869972965
C            1.03086787059051       -0.18677609453781       -0.51634841056277
C            0.29955198531080        1.03278605818140       -0.76088255281166
O            0.70082337685672        2.06307640691739       -1.24930628991650
N           -1.02467258119964        0.88423249470689       -0.28197535909748
C           -1.73117192482017        2.10188493522819        0.07412397328415
C           -1.69167969629464       -0.28681882543022       -0.05197403488966
O           -2.85106735677010       -0.26805354087322        0.29354601859289
N           -0.97490008598224       -1.49152165282105       -0.15388685925930
C           -1.78860218992512       -2.70150284593709       -0.12944525527189
H            3.94115427260081        2.43997167247968        0.96752331466065
H            2.60596166570899        2.70305645120635       -0.30266537740929
H            2.17923596883435        2.09220758940790        1.34032197871209
H            3.48497458144679       -2.03073511278270        0.19912634897604
H           -1.04700950454214        2.88239878944616       -0.24332346053114
H           -2.70434372748544        2.17517665398030       -0.39565337566586
H           -1.79525644336008        2.16285468632676        1.17531521842425
H           -1.60332425699080       -3.38176120148155        0.69483452429487
H           -1.74068221514533       -3.29905366395165       -1.03421299150545
H           -2.79662208598724       -2.34832431651781        0.02255968816126
H            1.18824500244477       -3.22517255103662        0.38916707963918
