25
 energy: -42.159719610461 gnorm: 0.007019933139 xtb: 6.6.1 (8d0f1dd)
C            3.29947276993525        1.11325602767614        0.02045650072556
N            2.31706926055104        0.06313960950675        0.00473100978831
C            2.54537943927365       -1.24714399349540       -0.00627697928937
N            1.37288389813114       -1.92384402597720       -0.01205032569667
C            0.35621564617163       -1.00976312553379       -0.01102157945041
C            0.94529660126254        0.26192032201158        0.00532048678252
C            0.20519794334200        1.46470337211755        0.03533805523721
O            0.60745226434134        2.60593215715118        0.04480144203189
N           -1.24626669214420        1.20777505520827        0.07548162655486
C           -2.01081500502395        2.29780381433491        0.17039041561468
C           -1.75155926918308       -0.04855518944991       -0.02820434038308
O           -3.08314554634763       -0.26734186639959       -0.09359707063992
N           -0.97218743932294       -1.18270632968240       -0.04312487518417
C           -1.55999626563604       -2.50833384256513       -0.05812968416805
H            3.87668976650929        1.08246178329897        0.94529263511473
H            3.98137895732744        1.00813375291559       -0.82339561020845
H            2.78296116910053        2.06989921180567       -0.04501672097343
H            3.51186701476956       -1.70905551217040       -0.00536844272518
H           -1.51084793759981        3.24325689657710        0.19041211859861
H           -3.56252107071799        0.51297085593764       -0.40831218363594
H           -3.07349226268494        2.23209722770476        0.29710963603155
H           -1.30767431335966       -3.03957507257055        0.86065521128247
H           -1.19662200162239       -3.06681578605900       -0.92164688002682
H           -2.64028162303447       -2.41437022759918       -0.12412972130154
H            1.27397621006173       -2.92760657314381       -0.03854310617882
