72
 energy: -99.438304731934 gnorm: 0.003883519381 xtb: 6.6.1 (8d0f1dd)
N           -2.40109235285049        3.47782866113287        1.81949315452293
C           -2.24876454867749        2.20294286130591        1.47640227748046
C           -3.19825914603825        1.82408016437547        0.39059742969322
C           -3.73828488213913        0.41154001900704        0.48654566776964
C           -4.59566220231053       -0.05921112002371       -0.51120235424684
C           -5.10265076062949       -1.34669853503914       -0.48297337549822
O           -5.93204412124768       -1.87831914829296       -1.40583220741424
C           -6.34212945314715       -1.09119633252184       -2.49805821141724
C           -4.74618727550165       -2.21530392107061        0.58295078642885
O           -5.26881470045817       -3.45633371239714        0.52349360037645
C           -4.95995011837939       -4.37645877221227        1.54475583315492
C           -3.91489429259135       -1.73367529652127        1.58018032517753
C           -3.42170156235500       -0.43654098796075        1.53382681812717
C           -2.54000530003557        2.04966141063071       -1.01050816768850
C           -1.54625029598268        0.97263435616406       -1.43545018581830
C           -0.20253255556328        1.14226943426545       -0.73056318635984
N            0.71979129267993        0.06279839330723       -0.96985410737799
C            2.08870983293509        0.33405493758956       -0.58574647244911
C            3.06859431661118       -0.21072711170090       -1.64031536920231
C            4.47799999524402       -0.02127888615412       -1.16665434000385
C            5.12098845650206        1.19759391320503       -1.32294704236137
C            6.39932188637379        1.39607568485167       -0.82664851563844
C            7.06459259530949        0.37602786909903       -0.16066182987397
O            8.30057465485914        0.46053424031967        0.37142649712604
C            9.00745861076764        1.67393472413522        0.26992616712913
C            6.42028773380696       -0.88184557184757       -0.00677516123109
O            7.14029849960834       -1.82330611572143        0.63814853828601
C            6.60032677219300       -3.11406318664509        0.79049704945029
C            5.13855136514614       -1.05305302496206       -0.50592069268150
C            0.24877808890355       -1.24178268870838       -0.56815627805682
C           -4.29366271348606        2.92144732968226        0.58211369579266
C           -5.36279399517065        2.50100808611803        1.58483916014544
C           -3.49279311601748        4.11606630300511        1.12744672003047
H           -4.87467362842425        0.59685292698281       -1.31841556745112
H           -6.90435594207812       -0.21065275592012       -2.17124818843424
H           -6.99224288785725       -1.73161156316569       -3.09084158097368
H           -5.49017427660362       -0.77664511089859       -3.10941938542203
H           -5.32012984029005       -4.03079640139493        2.51850825867492
H           -5.47598192494120       -5.29591720610351        1.27579181417795
H           -3.88369223018514       -4.56758153669215        1.59957979113865
H           -3.64236307880813       -2.36250758380155        2.41192617189259
H           -2.79395318283973       -0.10729913614224        2.34544294624268
H           -3.34324929371910        2.08826311067209       -1.74531811248154
H           -2.04430531045191        3.02187025387369       -1.01816378436630
H           -1.97159832178861       -0.00517318634478       -1.21676414973002
H           -1.38835219957391        1.03659278351997       -2.51292940247378
H           -1.54694033282553        1.58390158683719        1.99804515119892
H            0.26456877290990        2.06516896700156       -1.08557256534022
H            2.32593280535033       -0.10981474931273        0.39225973884142
H            2.23691979766180        1.41228005609808       -0.50254828964683
H            2.90113013974616        0.32486997437741       -2.57496018109636
H            2.86481343777020       -1.26737287878137       -1.81189787087754
H            4.62483902683978        2.00316493298665       -1.84238760143035
H            6.87376933142161        2.35365813077307       -0.96629532824427
H            8.48041331564718        2.48763485897144        0.77832598887609
H            9.18435616197278        1.94989616036025       -0.77400597076859
H            9.96161871238507        1.49849478463023        0.76325035906236
H            7.36099364406618       -3.68940649966119        1.31473441878315
H            5.68319601000526       -3.09913040371740        1.38818235581809
H            6.39712963245201       -3.58013529162795       -0.17875333867545
H            4.63801141453580       -2.00181327540096       -0.39178295974014
H           -0.51295476940308       -1.59630024297546       -1.26075619092492
H           -0.17668295325275       -1.23692956173994        0.44575612851430
H            1.07569381884997       -1.94628402966992       -0.59134836036191
H           -4.77027661609721        3.17046852161631       -0.36576108566840
H           -4.91454161096341        2.24643161231001        2.54242244704383
H           -5.90934253372880        1.63445054117848        1.22495269797649
H           -6.06928201912431        3.31366103438176        1.73347142017115
H           -4.07721176499922        4.72944819328176        1.81493597962279
H           -0.39995091380825        1.26478863601822        0.34827443245487
H           -3.11498400232900        4.76143693880269        0.32631538495233
H           -1.83743149887832        3.95547295474224        2.50388304790179
