25
 energy: 41.048555532140 xtb: 6.6.1 (8d0f1dd)
C            4.84263870039487        1.01927037894112        0.25703819447474
N            2.00238117847133        0.33425432391766       -0.21962284800576
C            2.33099756937003       -0.91589889657665       -0.09722154251328
N            1.23781105600195       -1.72850134322542        0.01488004969322
C            0.15680305847324       -0.90402791351006       -0.01152721314569
C            0.62601242121028        0.39626778935628       -0.10162244633905
C           -0.29767735295994        1.51491348845611       -0.02967723588530
O           -0.07737604151675        2.70050807954969       -0.01303697621978
N           -1.62289066007701        1.03044887188554       -0.05974407570701
C           -2.67829291352284        2.02236148125606       -0.08974405059265
C           -2.08916201159530       -0.26470586446916       -0.06153264210793
O           -3.26728015814674       -0.54369803677392       -0.10270211396629
N           -1.14569501502147       -1.27904348865331        0.01287671849540
C           -1.58632324350749       -2.66083290132190       -0.02230673994661
H            5.41619989856124        1.08155027181752        1.17215724599183
H            5.51504911805496        1.06139136626496       -0.59934984021586
H            3.66411850518678        1.22469294847540        0.10968661102712
H            3.32620584037825       -1.32950786257719       -0.02517727402586
H           -2.23173388789026        3.01320187854985       -0.10299370461262
H           -3.29187481912576        1.87342285019103       -0.97606715175262
H           -3.31400871138905        1.90108971500426        0.78586484167100
H           -1.25236902797409       -3.18884852110966        0.87215092116911
H           -1.22889746750264       -3.17542965112413       -0.91881271622761
H           -2.67499500096275       -2.64319769118371       -0.04765991727674
H            1.23086844742405       -2.73467757697089        0.02320892119922
