25
 energy: 107.655611933597 xtb: 6.6.1 (8d0f1dd)
C            5.27821354399313        1.13489361342541        0.19195292937292
N            1.95666237487857        0.33430662896544        0.00676518688991
C            2.32752834758805       -0.97081882117020        0.00487334914389
N            1.21367594942322       -1.76708474544711       -0.01459526756812
C            0.12719187836570       -0.96330580747838       -0.02812075040912
C            0.56868302312950        0.35289601951472       -0.01517264441765
C           -0.34044226635216        1.44801154086694       -0.04016038121319
O           -0.05886730105706        2.63439283891273       -0.02975740640693
N           -1.68724524762856        1.00564356653813       -0.05963826249691
C           -2.71994914756601        2.02968067154243       -0.08044905991099
C           -2.14582718798052       -0.28184489069761       -0.06747391896415
O           -3.32591653536419       -0.55509909973680       -0.09130744193190
N           -1.18672092702534       -1.30782974648214       -0.04814160469185
C           -1.62586356032076       -2.68667100747276       -0.05316829305890
H            5.79991642083424        1.42609155185924        1.11881026106487
H            5.99211958891154        1.30914444533096       -0.63219223146891
H            2.62564955544795        1.12616951982359        0.02094686483627
H            3.33132226538573       -1.31188819105845        0.01984278253245
H           -2.23731673121640        3.00422204703822       -0.07596878561467
H           -3.33319154033747        1.91462216614363       -0.97417855424214
H           -3.35373215448728        1.92137439393663        0.79764588633574
H           -1.28829970730316       -3.20278722342886        0.84726851164700
H           -1.26093832057345       -3.20672567872552       -0.94098801240009
H           -2.71607886460357       -2.67559733287151       -0.06730518916677
H            1.23305437775466       -2.77495426827415       -0.01923643251306
