25
 energy: 38.598060526234 xtb: 6.6.1 (8d0f1dd)
C            4.78589361339463        0.97968851921033        0.22228070589178
N            2.03581938878696        0.32230652406326       -0.24695809550045
C            2.35272513690706       -0.92785088792515       -0.08978501981496
N            1.25214457022555       -1.72586834222587        0.01487914196808
C            0.17690794314999       -0.89229244380540       -0.00942665627443
C            0.65871489350766        0.40200930315159       -0.09396148677898
C           -0.26648865674970        1.52331497983877       -0.03072261389836
O           -0.04310747545918        2.70846494757310       -0.01568732790607
N           -1.59497694767712        1.03456544542412       -0.05705077423836
C           -2.64675514975878        2.03091464311407       -0.08614383605888
C           -2.06714000738412       -0.25925861962618       -0.06168961741359
O           -3.24495188413150       -0.54070956048822       -0.10343481909762
N           -1.12506926529100       -1.27228875502820        0.01438346915159
C           -1.57280415307118       -2.65296540648783       -0.02106010318104
H            5.34494378005040        1.00104709366832        1.13877424989222
H            5.43757665525806        1.04065284285461       -0.63916104231248
H            3.65837851098344        1.11597655897574        0.11288571862592
H            3.33868982014635       -1.35948794078572       -0.01012937250121
H           -2.19148303875730        3.01670820647495       -0.09661287095728
H           -3.26075799621207        1.89297096128819       -0.97404729895645
H           -3.28563561456418        1.91510893486514        0.78805781595504
H           -1.24195303260587       -3.18200715295339        0.87296226803525
H           -1.21963869716852       -3.16788857307749       -0.91856458784000
H           -2.66242197217006       -2.62964202777090       -0.04752561604271
H            1.22211322526648       -2.72860860048133        0.02112711796620
