25
 energy: 108.688282045755 xtb: 6.6.1 (8d0f1dd)
C            5.56835614405940        1.15083579698527        0.20055075165090
N            1.93880249630835        0.31909960632134        0.00062257081231
C            2.33860603447912       -0.97977371154774        0.00428142846284
N            1.21978446692878       -1.76718181406501       -0.01619522262837
C            0.12728021138788       -0.96943748152863       -0.03020505328258
C            0.55465705524369        0.34937920459832       -0.01938299246881
C           -0.34460326581261        1.45280782810537       -0.03075808429214
O           -0.05323844915810        2.63946323592200       -0.01830899621998
N           -1.69439497849457        1.00953995163929       -0.05924929627921
C           -2.72941744005752        2.03263730976636       -0.07837024799311
C           -2.14774023347556       -0.27830390505600       -0.06809295628669
O           -3.32555917960212       -0.55671209236503       -0.08967264084504
N           -1.18535878152033       -1.31021833757795       -0.05125572006009
C           -1.62293984537130       -2.68837170957001       -0.05410667819394
H            6.05374787423576        1.44845645007647        1.15161974448977
H            6.28005940577554        1.34754087111613       -0.62645042684736
H            2.55076649288238        1.11592175392983        0.02750144445877
H            3.34791713298243       -1.31398666466740        0.01815819495374
H           -2.24040124117368        3.00455093559958       -0.07233617023017
H           -3.34095059167934        1.92174645086503       -0.97326655514965
H           -3.37032177797163        1.92611572642665        0.79630956187461
H           -1.28204975914514       -3.20487093740396        0.84541788712176
H           -1.25965220372664       -3.20890991681344       -0.94244153214771
H           -2.71219279598386       -2.67763742484125       -0.06796954642389
H            1.24105753386221       -2.77366233717115       -0.01936555228121
