25
 energy: -5.963185763776 xtb: 6.6.1 (8d0f1dd)
C            3.33418440735344        1.15241531854873        0.09626561994308
N            2.33638986140335        0.12162308033037        0.03824531969678
C            2.60725963467826       -1.23765131666403        0.03278913300435
N            1.41468389102570       -1.92183330100238       -0.00032784813699
C            0.40204345526017       -1.03456006777931       -0.00929331276385
C            0.93316193389467        0.25280366325096        0.01456149118778
C            0.09981891000992        1.39681354538623       -0.00790768334862
O            0.45928048050502        2.57688747563698       -0.00550739189593
N           -1.28401180740177        1.04728528450634       -0.03278516003884
C           -2.24734226808390        2.13570099819226       -0.05214864793938
C           -1.82851407031494       -0.19857588717121       -0.04842740428687
O           -3.02645629743680       -0.39287603468058       -0.07110310462568
N           -0.93962948478239       -1.28769280019983       -0.03774770711215
C           -1.47484553736515       -2.63005998760956       -0.05837424939042
H            3.83616803473261        1.19628187237149        1.06755359183264
H            4.10404806345777        1.02556340659691       -0.67131703577253
H            2.82158173865813        2.09032459012917       -0.05811813056702
H            3.57438261779458       -1.67549024840434        0.03951550589770
H           -1.69537034100093        3.07026231818816       -0.02941361202269
H           -2.85472517627193        2.07768364641741       -0.95562409626505
H           -2.90556350922778        2.06299760872848        0.81356757699085
H           -1.17364333692404       -3.18219302936093        0.83451346090473
H           -1.14891004457588       -3.16532382810197       -0.95258617685855
H           -2.56207894743193       -2.54030411629424       -0.07309219817266
H            1.35167371631795       -2.92707017278975       -0.01547415821691
