25
 energy: 39.354903309769 xtb: 6.6.1 (8d0f1dd)
C            4.69002281858050        0.94003462084696        0.19225186961921
N            2.10535886104489        0.30528564438916       -0.26422395672453
C            2.39478120269290       -0.94586235388927       -0.08861344041920
N            1.27735964953976       -1.72568051743921       -0.00670540443009
C            0.21641882122190       -0.87777653280413       -0.01888421725542
C            0.72373666726738        0.40747143976456       -0.09065600023198
C           -0.20609162954827        1.52220170076887       -0.03740835938307
O            0.02885000963157        2.70374738160294       -0.02104979889129
N           -1.54276660116463        1.03991477502517       -0.05444373312791
C           -2.58646696598197        2.04797210653170       -0.08082281874908
C           -2.02764455854947       -0.24722350489468       -0.06153203788802
O           -3.20667856003722       -0.52095216702312       -0.09755521471401
N           -1.08777035340878       -1.25841340889006        0.00679523274802
C           -1.55074297877818       -2.63652359760356       -0.01912065112401
H            5.20791569493169        0.86216821454074        1.10280376522909
H            5.28385328783971        0.97409158297219       -0.68722155348624
H            3.66723357099658        1.17673996619487        0.17092619905881
H            3.36149115466840       -1.41451003035022        0.00100173173725
H           -2.11155168218580        3.02111252277836       -0.08798859362338
H           -3.20290504175026        1.92961845297513       -0.97084524101403
H           -3.23067817043419        1.94555883670202        0.79212151520700
H           -1.22674104247543       -3.16341989541418        0.87775982102632
H           -1.20632354002841       -3.15859170249724       -0.91462838961309
H           -2.64166602778043       -2.60367406857356       -0.04440651695903
H            1.21371330463518       -2.73203464860701       -0.00396583038010
