72
 energy: -99.360598894915 gnorm: 0.004006147800 xtb: 6.6.1 (8d0f1dd)
N           -1.37361887168443        2.40300801154287        2.33959166208753
C           -1.23996030796305        1.58727734929561        1.40131438942740
C           -2.23910074787843        1.42964421705948        0.27930963804309
C           -2.57181369659652       -0.11037519095920        0.15847699817338
C           -3.77349919089259       -0.38743266570852       -0.67471741335639
C           -4.76939724056683       -1.23957501837634       -0.30916530036683
O           -5.87371895491545       -1.52111274643250       -1.03235850592433
C           -6.07462661678917       -0.87075102472466       -2.26613494191530
C           -4.70507160804646       -1.94025471265195        0.94667969245646
O           -5.71837563438547       -2.76464460265113        1.19572461991484
C           -5.76938938934111       -3.48055244210826        2.41123131505561
C           -3.61586492181382       -1.68890420046268        1.79954047628752
C           -2.63424722013014       -0.80990104850556        1.46376611100376
C           -1.46360413482978        1.95287059509858       -0.93439447323170
C           -1.57802867260395        1.46789466487518       -2.35129503353510
C           -0.28861601854726        1.26733958598370       -1.61739509401691
N            0.17267316074156       -0.03681506016671       -1.22874764317230
C            1.50051165690537       -0.01817518838278       -0.64033514291846
C            2.65710346429258        0.01831798946441       -1.66544780997164
C            3.98242465710515        0.22366641677318       -0.99441073835421
C            4.60684051276575        1.46301655687842       -1.00665100544531
C            5.84714698254591        1.64303689153217       -0.41537859893303
C            6.48928147617914        0.58622990576156        0.21589743017155
O            7.69560383069503        0.63900128909830        0.80714368827178
C            8.43243879096041        1.83969646058865        0.76889982619034
C            5.84733699764167       -0.68472971120783        0.25567188308427
O            6.53351624215785       -1.65020804096089        0.89620612984717
C            5.99366879483600       -2.94793316030486        0.97332631365411
C            4.61142666818110       -0.84139931223963       -0.35234881725111
C           -0.01350824438644       -1.10604149231067       -2.19647159379612
C           -3.54488709842872        2.25278206335078        0.48006951429279
C           -4.29699886950293        1.82771937679038        1.73949932248570
C           -3.32398533101540        3.76559382475593        0.52737820226330
H           -3.85226647978999        0.12989574928680       -1.61492112170164
H           -6.13429983178025        0.21475448895464       -2.14235096488094
H           -7.02640286637010       -1.24272181277385       -2.63989416419620
H           -5.28492912308674       -1.11721698493470       -2.98267800622084
H           -5.85066696860878       -2.80405072940383        3.26668853150296
H           -6.66531859921774       -4.09534253987158        2.35021304265256
H           -4.89419479033950       -4.12450692064682        2.53313998288119
H           -3.57048085952047       -2.18786371645733        2.75492907445578
H           -1.82819618175847       -0.64096569057595        2.15948773577047
H           -1.67662268576518       -0.49969629925370       -0.35790091707337
H           -1.31126121144682        3.02057588430109       -0.83689828636856
H           -2.17063493692381        0.59848682693238       -2.57157143346151
H           -1.60442215314720        2.20694427624121       -3.13820058535233
H           -0.35970851757079        0.94336258876888        1.26709842877280
H            0.51841251248790        1.94534731937216       -1.89026801751350
H            1.60570971799769       -0.91129988666610       -0.01674183927763
H            1.57616344107980        0.86009320472790        0.00544035408422
H            2.47864128471012        0.82918534882101       -2.37381983345579
H            2.67401041576889       -0.92272104640277       -2.21706270960165
H            4.13475435519721        2.29976036401391       -1.49864844230448
H            6.31287587560714        2.61403288915949       -0.45790804597791
H            7.91073491663621        2.64750471292455        1.29075299897414
H            8.64416824261845        2.14565793036620       -0.25996120586962
H            9.36808288888458        1.62438018350795        1.28147567050822
H            6.72317314575279       -3.53538680314228        1.52751359071237
H            5.04032150814393       -2.95397543026462        1.51122139131997
H            5.85675625965401       -3.38509976524887       -0.02047371352446
H            4.12874398666770       -1.80612814450997       -0.34829420270299
H            0.45014212364604       -0.88943400479741       -3.16466819928889
H           -1.07460212616411       -1.28760761792627       -2.36312489787442
H            0.42186538692643       -2.01715671374685       -1.78944472282845
H           -4.18221338535397        2.04027203715202       -0.38557941764417
H           -3.67426948212927        1.98342465950073        2.61496757252688
H           -4.60008781705058        0.78687022639325        1.69414166667156
H           -5.19381206525660        2.43241835463128        1.84733258908053
H           -2.59524139350831        4.01788961235871        1.29104168704417
H           -3.00263399957733        4.16335302394110       -0.43121552202427
H           -4.26325150137995        4.25041150239152        0.78080135518884
H           -0.62418395420250        2.46240286343400        3.02217032059957
