25
 energy: 31.569827580807 xtb: 6.6.1 (8d0f1dd)
C            3.59311471404500        1.01276436758256        0.09703191953979
N            2.40180516074573        0.21077425724039       -0.05372270135972
C            2.54527298013963       -1.16844801739921       -0.13300850071860
N            1.31084516929302       -1.74258987321639       -0.13613880344011
C            0.35178856669830       -0.79744850250514       -0.06529663836294
C            0.93232046492507        0.47965078152765       -0.00241448264079
C           -0.00513646739162        1.54463298070195        0.09197702360434
O            0.14388818814771        2.74184006918985        0.13600668966330
N           -1.69032304167943        1.11738827144401       -0.05211538157905
C           -2.67684945454412        2.16482819123342       -0.04861528925628
C           -2.13264301882887       -0.13662429113424       -0.10269913464126
O           -3.23034661995549       -0.60589443692481       -0.19645637631739
N           -0.97946797329359       -1.09372761632972       -0.04880439774357
C           -1.26691814729548       -2.53096411449952       -0.02375870791540
H            3.96825014590609        1.17284905947345        1.12765353319254
H            4.44315503153199        0.43473474659062       -0.37618045455154
H            3.45861469531005        1.99368470673166       -0.35055881837791
H            3.44463146441600       -1.75384981265767       -0.12301020889781
H           -2.05700883503337        3.06928825801072        0.01259389838045
H           -3.30665862509135        2.14412544491574       -0.95297906845260
H           -3.39679850649122        2.04874872950354        0.77953041681480
H           -0.88205210666790       -3.03505736247611        0.86765857138377
H           -0.88043510416385       -3.03932853714099       -0.91446093378086
H           -2.33161365293084       -2.65751344417175        0.01903385169781
H            1.14050068348900       -2.74041445576563       -0.11223502581095
