25
 energy: 55.618190234287 xtb: 6.6.1 (8d0f1dd)
C            3.45200049128736        0.94376127219763        0.14040433934643
N            2.53668306413112       -0.16749012878116        0.03791241663604
C            2.84418293537493       -1.45558201900473       -0.10388512060440
N            1.69367086191525       -2.17683020457086       -0.11555157076263
C            0.63314525788003       -1.31395009121189        0.02106310795171
C            1.18087878634921       -0.03948133831766        0.12089367522403
C            0.29133967840088        1.13578088801291        0.25068137269597
O            0.70423721096934        2.28794042912562        0.23079249462012
N           -0.99685380347274        0.77507039503241        0.35395853432010
C           -3.60925318856164        3.58058429991766       -0.40513096934984
C           -1.60268858995895       -0.36275166649540        0.22140398526624
O           -2.77226771081647       -0.63972143385813        0.17538255868227
N           -0.65729015416319       -1.58471940122304        0.04317870233823
C           -1.21089218184484       -2.90406037615448       -0.01535375250225
H            3.97669187527940        0.96880141260887        1.10074591261866
H            4.18611762504506        0.91088157858004       -0.66425470642748
H            2.87240217260334        1.86551406988728        0.07867263113009
H            3.82728827923925       -1.87509633364634       -0.18720965329588
H           -2.81626776363157        4.29503428841186       -0.37502494510510
H           -3.92794958563426        3.16678498682815       -1.34077648439351
H           -4.09015657064928        3.28517423558131        0.49972498557941
H           -0.87302243803158       -3.50779811595847        0.83019004683433
H           -0.95314772915082       -3.40339342212369       -0.95528969529956
H           -2.29476264945940       -2.79033103878249        0.04429612677661
H            1.59819679847265       -3.17061856701517       -0.23957283190005
