25
 energy: -5.548085994649 xtb: 6.6.1 (8d0f1dd)
C            3.26185399699663        1.16295245145900        0.09567647853495
N            2.31201121517445        0.10006650123612        0.03708470623689
C            2.60815272828215       -1.24750590431049        0.02485769430834
N            1.42315770591134       -1.94571016450846       -0.01170355679664
C            0.40615997637336       -1.06159666595316       -0.00121264809317
C            0.91960654504588        0.22788790486680        0.03562280031625
C            0.10345912600162        1.38610017610856        0.01805153819947
O            0.49016601008397        2.55924784906159        0.03167276018700
N           -1.30118011032377        1.06756108033597       -0.01768483836672
C           -2.26843157757482        2.18056846186113       -0.07544776098605
C           -1.82692159438827       -0.19279155707946       -0.02220289192343
O           -3.02256212449366       -0.40521633406570       -0.03778111873867
N           -0.93510208220960       -1.29515144538499       -0.01251872289067
C           -1.45262391159622       -2.64584511405530       -0.05307158582654
H            3.75625012996246        1.19397897224813        1.07306212924372
H            4.02484864702451        1.03332536414150       -0.67591222942058
H            2.72384376925437        2.09318085798126       -0.06203328464853
H            3.58505582590186       -1.66913737668152        0.02542355026210
H           -1.72188133778784        3.12313221267726       -0.05814607972900
H           -2.87398934963678        2.13494811103974       -0.97926959277626
H           -2.93343965621516        2.13286792145794        0.78710301442920
H           -1.14076152397058       -3.20871658419908        0.83051605475028
H           -1.11989500810438       -3.17236903039378       -0.95256916473682
H           -2.53845762373921       -2.57214218097011       -0.06454200696324
H            1.36153455115868       -2.95048456206780       -0.04065894065085
