25
 energy: 22.251154440577 xtb: 6.6.1 (8d0f1dd)
C            3.34858318100751        1.08332810154640        0.13526837439492
N            2.34559369847499        0.06581715327000        0.00813587861031
C            2.63212850674724       -1.29409492859768       -0.06010353391982
N            1.43402853899841       -1.96719443417994       -0.12868364038342
C            0.43009744432908       -1.06921591721255       -0.04565266010659
C            0.92780575072045        0.22253247299426        0.04177632707234
C            0.05640903349044        1.38608634538831        0.11116312600468
O            0.46229525539210        2.53922383506173        0.25023298787065
N           -1.43936912399773        1.15942278377958       -0.03240208386737
C           -2.52462996303808        2.36415774417695       -0.23822187318995
C           -1.86750005832830       -0.15530893180860        0.08150440946517
O           -3.03050659609428       -0.48501249763089        0.17419049718267
N           -0.91306981560823       -1.26751530349811        0.03436680326548
C           -1.36153795110989       -2.65238179888552       -0.01617326259311
H            3.89869297325233        1.00839832389445        1.08757710100012
H            4.08543674626614        0.98191955386623       -0.66977044760277
H            2.86464999268208        2.05152280830612        0.07758902196325
H            3.59908581360689       -1.74553145505647       -0.14578356361324
H           -2.00751263087690        3.32509866559757       -0.25972625916192
H           -3.11162546847931        2.29759883977792       -1.16386780947277
H           -3.20919997712273        2.38899405577029        0.60713684820113
H           -0.98181139021496       -3.23244006810451        0.83425553683457
H           -1.00258596444234       -3.13961508050094       -0.93211811522387
H           -2.44997400744624       -2.66673801535380       -0.00439178370503
H            1.36817781323522       -2.97020243236162       -0.21237072939832
