25
 energy: 52.339224549365 xtb: 6.6.1 (8d0f1dd)
C            3.38291162332454        1.04734107476998        0.14908185129083
N            2.37351309572945        0.03286477577218       -0.00799250159333
C            2.65057078301977       -1.29520482038217       -0.10196201513650
N            1.47548901670332       -1.99364011174341       -0.15282949860276
C            0.45521938824607       -1.09596689553981       -0.06832593804856
C            0.97805650693170        0.17895088894413        0.01972026252530
C            0.07292542215200        1.35149768712837        0.13755950181598
O            0.50073033555342        2.48480896087915        0.32091811339909
N           -1.31083902680894        1.07612027846304        0.03924495180039
C           -2.75663659784623        2.60139453668656       -0.31233793241815
C           -1.81767551255889       -0.16791714579714        0.12207281849308
O           -2.97558366637561       -0.49670557747967        0.25933183599857
N           -0.86359842815184       -1.31238184956973        0.01804094999654
C           -1.31850780590382       -2.68069174607341       -0.00445478716690
H            3.93842617830378        0.92394766297406        1.09348615720130
H            4.10932548430109        0.95585976755476       -0.66356075439362
H            2.91971066594633        2.02748357485562        0.12919341229384
H            3.61008126846706       -1.75282705167820       -0.21769884121616
H           -2.14480189953506        3.47232332968021       -0.32356381389790
H           -3.26806393322036        2.41427448025779       -1.23254201265140
H           -3.35555601793366        2.50813587121575        0.55722979526652
H           -0.91689377950600       -3.24779857218486        0.84219239385531
H           -0.95873291309135       -3.14461596198955       -0.92719411743278
H           -2.40997470978795       -2.70047098255103        0.01995024147738
H            1.42266995501106       -2.99061526702411       -0.25608681418903
