25
 energy: 55.302809512158 xtb: 6.6.1 (8d0f1dd)
C            3.45184059979325        0.93074024568757        0.17480394255098
N            2.49128998419665       -0.12858970708354        0.02828988928862
C            2.80431715537312       -1.40940004026109       -0.12089028534520
N            1.66727723661920       -2.14972978447126       -0.14290887346159
C            0.60214240929449       -1.27919659868132       -0.00908710258399
C            1.13842049781393       -0.00335191450193        0.08420813024593
C            0.24558464321245        1.17687274024037        0.22875317934824
O            0.71553806024867        2.29848002534896        0.33541217928303
N           -1.05524984792663        0.86545538656927        0.25561398496836
C           -3.42596364456039        3.34463113235467       -0.41219251289106
C           -1.62375906915242       -0.29943397896611        0.21661725671272
O           -2.77381821574496       -0.62358653585381        0.30788581618876
N           -0.69208889596313       -1.52033416939148        0.02198107327266
C           -1.22489226822554       -2.84854448846096        0.01046948611915
H            3.98617739116992        0.82976604701552        1.11329448035939
H            4.17207375856554        0.88414291372328       -0.64098754642021
H            2.94291509369384        1.89369930501410        0.17447325820018
H            3.78686819371635       -1.80570092267695       -0.23977242717661
H           -2.65136334806588        4.07060962531414       -0.38904702259218
H           -3.77792075391863        2.96982981915988       -1.34315598026421
H           -3.91751976016764        3.06539752210970        0.48696982515011
H           -0.82632889679447       -3.42269402717811        0.85162238489925
H           -0.96419164193769       -3.34015191868775       -0.92782444069090
H           -2.30816423346534       -2.79229440275056        0.11422498729859
H            1.64654185685526       -3.15784651216191       -0.22835436050488
