25
 energy: 57.189230145870 xtb: 6.6.1 (8d0f1dd)
C            3.45165313026542        0.93059559665812        0.19350443774242
N            2.45596324011798       -0.09451169817501        0.01870742310123
C            2.76627299128535       -1.37448118126772       -0.12634348029088
N            1.63135750563656       -2.11306461591913       -0.14991596331695
C            0.56841598176520       -1.24280394916463       -0.02956221672536
C            1.10223164678969        0.03249358789086        0.05931580745508
C            0.20058555052674        1.20804831976726        0.21749602495670
O            0.66811717310957        2.31908392058718        0.39249980464028
N           -1.10314556753188        0.91540449911836        0.19626707750126
C           -3.29883804757132        3.18539074684581       -0.40258737903429
C           -1.65913957175130       -0.25634730864944        0.20887285402187
O           -2.79749680061937       -0.58837668651826        0.37650730774081
N           -0.72595017349382       -1.47425120664668        0.00969818419846
C           -1.23349145663137       -2.81165879733737        0.02615132719568
H            3.97787560547857        0.74700417796437        1.12312004781459
H            4.17324691885958        0.86644909833938       -0.62056244642333
H            2.98581823385773        1.90846332576419        0.23380977481100
H            3.74979710597675       -1.75057965429066       -0.26198920081455
H           -2.56206948145591        3.93466725001828       -0.39225003655404
H           -3.67298744655257        2.83875072217831       -1.32875009952222
H           -3.80954141240372        2.92920290471087        0.48239402843638
H           -0.80543444477057       -3.36257527851276        0.86602728387578
H           -0.95888130110366       -3.30024084038007       -0.90794667820499
H           -2.31778527051690       -2.80223154932154        0.13542484875331
H            1.61474391725728       -3.11737870360197       -0.23008432857660
