25
 energy: 58.722076499519 xtb: 6.6.1 (8d0f1dd)
C            3.44534187989835        0.94767083686062        0.19143803235482
N            2.42870302220638       -0.05478118447095        0.00002244078547
C            2.73274075214544       -1.33843334356244       -0.12815248475591
N            1.59492075979818       -2.07347898910404       -0.16009622569997
C            0.53663954652821       -1.20054225220045       -0.04842537862364
C            1.06959013263586        0.07390468803120        0.04143240858306
C            0.16062938973901        1.24903237876669        0.20236180794053
O            0.63779225753052        2.35500096928303        0.41778078324855
N           -1.15148770952649        0.96578816445696        0.14576596805850
C           -3.16329735699657        3.02812894209359       -0.38562632688680
C           -1.69747140771214       -0.21552929112057        0.19098074097373
O           -2.83476799920789       -0.54761812815213        0.39986549529595
N           -0.76083904477811       -1.42504603616996        0.00501405556715
C           -1.24857629073866       -2.77015972664351        0.02898486369057
H            3.96411300463352        0.70356434798567        1.12388270912292
H            4.15917857015281        0.88705709201169       -0.62967949769756
H            3.02187913212343        1.93874154634286        0.25484789774674
H            3.71492817862676       -1.70190231225060       -0.30436668682885
H           -2.44968070167468        3.79891461610321       -0.37834246500648
H           -3.56683548640000        2.71615758957893       -1.31133376291505
H           -3.69102068461207        2.79570738144117        0.49340964172308
H           -0.80038851464107       -3.30041725417491        0.87381267539532
H           -0.95138519392530       -3.25639845000240       -0.89918005108976
H           -2.33694113189326       -2.78079796709314        0.10355267739247
H            1.57903969067976       -3.07416082259476       -0.23928563148309
