25
 energy: 57.407129196986 xtb: 6.6.1 (8d0f1dd)
C            3.41245251429801        1.00901256992264        0.16415447161568
N            2.39669933794233       -0.00035113667160       -0.00593359083203
C            2.68204669475467       -1.30143725609689       -0.10175535849500
N            1.52859130807827       -2.02157357543135       -0.15806154088909
C            0.48818112765519       -1.13507024346754       -0.06981997032015
C            1.02109411663225        0.13759680534479        0.02444844190330
C            0.10851985700977        1.31337430252858        0.16438282212854
O            0.55736167931152        2.43439759627822        0.37084168771005
N           -1.23262885708703        1.02911210098007        0.08634779624661
C           -2.94121313439348        2.78546246587473       -0.35284442554645
C           -1.76808321053226       -0.17854620990459        0.15487844468857
O           -2.91811252075413       -0.50828047194185        0.33216207108817
N           -0.81828604697488       -1.35432706363932        0.00732581223746
C           -1.28314568822534       -2.70959008947980        0.01395078177736
H            3.95924591821629        0.83417464916436        1.10302219467749
H            4.13023097397112        0.92758792925764       -0.65473045063810
H            2.97124335913927        1.99790786798270        0.17677030288010
H            3.63867829351544       -1.72574913598727       -0.28049204584860
H           -2.27302436877400        3.60100243247945       -0.35073221649825
H           -3.39785377608713        2.53465363311278       -1.27545413193206
H           -3.49973525008699        2.61097267088035        0.52023073395003
H           -0.85781084633053       -3.25223536419855        0.86169343444516
H           -0.93879776898566       -3.18095406037385       -0.90724367781663
H           -2.37510416414679       -2.73317107580082        0.04970552926399
H            1.48972866544315       -3.02076306808977       -0.24831625120776
