25
 energy: 54.280770582542 xtb: 6.6.1 (8d0f1dd)
C            3.44602786198430        0.94506766787689        0.13458057233620
N            2.53147137993940       -0.16374809240678        0.04469701836233
C            2.84402414137101       -1.44339264285731       -0.10020505787167
N            1.70627657668033       -2.18199929248512       -0.11427068646016
C            0.63988668206567       -1.32616395001843        0.02847560818411
C            1.17414786176384       -0.04848807035813        0.13025754091469
C            0.26985310592199        1.12952756359957        0.23230169401841
O            0.71565226324711        2.26665972173592        0.26445065542249
N           -1.02223619744294        0.79665478147887        0.26463606381615
C           -3.64745133214208        3.66357825298420       -0.37207173485653
C           -1.57726884071490       -0.38165087342628        0.20467344473265
O           -2.74779845352955       -0.65764637520994        0.23635377528539
N           -0.65641290306601       -1.58737219406751        0.06457547462626
C           -1.22143151168735       -2.90778454129205       -0.02455258269160
H            3.96270680537253        0.93125372235590        1.09564081363283
H            4.18415779044409        0.89690196143593       -0.66545110436012
H            2.86387415716348        1.86643370413748        0.05984201937094
H            3.83135610752441       -1.84295733484188       -0.19298700986020
H           -2.80057753542489        4.31331182110016       -0.33905974503770
H           -3.97993843492039        3.26422516925609       -1.30520059331065
H           -4.10381832265125        3.33709858580348        0.53613266325864
H           -0.91342866724528       -3.52401955369349        0.82358645890214
H           -0.94158738507559       -3.39429830555037       -0.96183716406548
H           -2.30543437872736       -2.77996398570779        0.00414882049035
H            1.66016353412192       -3.18219895110519       -0.22168303264489
