25
 energy: 54.596750278839 xtb: 6.6.1 (8d0f1dd)
C            3.44285730349230        0.95241352623616        0.12948221241375
N            2.53188490226201       -0.15808367315678        0.03952825604408
C            2.84345228537782       -1.43828041924968       -0.08961685817025
N            1.70577484196095       -2.17901749455676       -0.11101782839688
C            0.63629738914648       -1.32549263491421        0.03135794188706
C            1.17282532897028       -0.04397079660027        0.12759410284080
C            0.27850066971698        1.13237734388773        0.24148185723039
O            0.70588329371249        2.27831269099402        0.25181424651062
N           -1.01602712584560        0.79519426072167        0.31541834337535
C           -3.67497830852171        3.69036983919206       -0.38619553834385
C           -1.59931354658324       -0.35386140879101        0.21285357373579
O           -2.76182913669824       -0.65002136870481        0.22871236322690
N           -0.65340320718235       -1.59669994322265        0.06992828161853
C           -1.21869025204630       -2.91415832709090       -0.02502766658416
H            3.95345291857945        0.94933357947023        1.09258946165657
H            4.18529908442135        0.90224818272698       -0.66623834472415
H            2.85934254338911        1.87335913764710        0.04655769031059
H            3.83039939773334       -1.83953381598755       -0.18093247841670
H           -2.78534921652026        4.28834020409176       -0.33847419749815
H           -3.94479148628570        3.21675836441720       -1.31071700823021
H           -4.09652458279171        3.32668304443672        0.52636962501724
H           -0.91981223462929       -3.53880049814464        0.82242650394721
H           -0.94246107805248       -3.40336309196818       -0.96333858668224
H           -2.30372636131216       -2.77753125682639       -0.00441879665691
H            1.65230125706605       -3.17913023363250       -0.21720728042123
