25
 energy: 56.120547095065 xtb: 6.6.1 (8d0f1dd)
C            3.45278657005141        0.92745810917335        0.18679726125996
N            2.47416677553301       -0.11487749819002        0.02625239353056
C            2.78509815738370       -1.39563248743705       -0.12441605973280
N            1.64815152584793       -2.13406216305539       -0.14810977449385
C            0.58516430030767       -1.26201970486999       -0.01924913811163
C            1.12085789673976        0.01270590568208        0.07253754539157
C            0.22369047300200        1.19048998984916        0.22666764692293
O            0.69514419479367        2.30533508997277        0.37543200938331
N           -1.07946309863648        0.88767323522706        0.22531178829331
C           -3.36081536900567        3.26494182054802       -0.40797932179023
C           -1.64646941968594       -0.27967244072532        0.21351143918672
O           -2.79158436579310       -0.61151691200457        0.34275094400465
N           -0.70939266857184       -1.49794655030304        0.01475098690966
C           -1.22612024105491       -2.83150411358641        0.01842807661856
H            3.98988321559917        0.79045405875672        1.11862209660845
H            4.16937172715919        0.87248444914424       -0.63271813476017
H            2.96376893446710        1.90122016928296        0.20596665373073
H            3.76893734691137       -1.77998973646009       -0.24940706050627
H           -2.60937431957608        4.00645255733924       -0.38996696325863
H           -3.72298579089360        2.90247826667312       -1.33573906106019
H           -3.86380025229263        2.99828490290471        0.48295301029952
H           -0.81646407545874       -3.39356742773196        0.85999454618900
H           -0.96129178107483       -3.32186348709506       -0.91780969202225
H           -2.30630266506186       -2.80446486491608        0.12903077569618
H            1.61684543031990       -3.14041466791018       -0.23943803061516
