25
 energy: -3.024985460502 xtb: 6.6.1 (8d0f1dd)
C            3.28167406037108        1.14970198315370        0.10432672987693
N            2.32027037491428        0.09647588125149        0.03713295596616
C            2.61476068947743       -1.25685294359462        0.01438433792287
N            1.42441285936149       -1.95044302690682       -0.03119137158681
C            0.41249570527489       -1.06155486499965        0.00882739364986
C            0.91947092549558        0.22975957571225        0.05718404342390
C            0.09118759653045        1.38523776057343        0.04358612938752
O            0.48122400171863        2.55639031562191        0.07406996153865
N           -1.33351448317422        1.08681766231410       -0.00585110118908
C           -2.31650169613571        2.21280953926810       -0.10766942549773
C           -1.83608172708606       -0.18691632554655        0.00373677675172
O           -3.02693872189060       -0.42495052265385        0.00227159581770
N           -0.93147056839203       -1.28747576029514        0.01153892512684
C           -1.43389484571937       -2.64666444335278       -0.04515924039449
H            3.79079353557586        1.16312555421990        1.07620351120908
H            4.03865546821957        1.02671054122534       -0.67572701657854
H            2.75096502816393        2.08583319118331       -0.03411681641742
H            3.59031237060963       -1.68908985529487       -0.00199702560795
H           -1.77869457624814        3.16188509731909       -0.09838116333117
H           -2.91841413471295        2.16891854782263       -1.01512334744109
H           -2.98827731961521        2.18718677422886        0.75221681418939
H           -1.11115099783754       -3.21802182146887        0.82977848179429
H           -1.09536523602162       -3.16520046181562       -0.94885276207336
H           -2.52054725766684       -2.58960281882233       -0.05397200717084
H            1.35708924745281       -2.95523744661208       -0.07365619306676
