25
 energy: 54.919366088854 xtb: 6.6.1 (8d0f1dd)
C            3.45429853692892        0.94059582906645        0.14879609457772
N            2.52286613119135       -0.15327562322136        0.03430650859780
C            2.83682325046842       -1.43703133383742       -0.10108406016859
N            1.69635167859273       -2.17337364905137       -0.11940074007693
C            0.62692002448735       -1.31100232120972        0.00610335456991
C            1.16838186475286       -0.03519020778901        0.10246987713183
C            0.27898815038242        1.14238570366217        0.24213161829444
O            0.72351027198031        2.28035169680344        0.26965473382036
N           -1.01503243683668        0.80480518297989        0.32804308288770
C           -3.54882327991073        3.49897162591563       -0.41572262602904
C           -1.60688560389440       -0.34389433108895        0.22035704365744
O           -2.77153460406405       -0.63611242449868        0.21130078035877
N           -0.66778451888306       -1.56606830339811        0.03580719399651
C           -1.21569400853924       -2.88767537341842       -0.00518220868497
H            3.97673184864548        0.92622891291979        1.10319728064377
H            4.18082667322312        0.89982561308266       -0.66185967670092
H            2.89292129306299        1.87228130551088        0.10976743128548
H            3.82481157916138       -1.83370554022778       -0.19620208736476
H           -2.75319185361458        4.21167566099264       -0.38871536169160
H           -3.87722534217842        3.09386100722138       -1.34921641811336
H           -4.03091536452510        3.20192960763512        0.48795276906648
H           -0.85410632719720       -3.48006949471938        0.84035475448616
H           -0.95150405397280       -3.38189652697163       -0.94451987941820
H           -2.30030352665416       -2.79381586987552        0.06991710686455
H            1.61702292232790       -3.17023059120144       -0.23615755410186
