25
 energy: 1.157324920178 xtb: 6.6.1 (8d0f1dd)
C            3.29907983311519        1.13443494687904        0.11246209340771
N            2.32659568860853        0.08969403952803        0.03410593074287
C            2.61896472718976       -1.26720872401427       -0.00155048580920
N            1.42403840368534       -1.95463792471478       -0.05483471342581
C            0.41643128854615       -1.06217039214346        0.01148765156146
C            0.91829915843662        0.23044501590834        0.07792757537207
C            0.07771874237569        1.38563956407881        0.07164337828875
O            0.47180216335836        2.55400550321567        0.11913783414178
N           -1.36696507885044        1.10748881531240        0.00698034346983
C           -2.36611196112026        2.24667390907137       -0.14354131336258
C           -1.84669715333365       -0.17941971449348        0.03128750683106
O           -3.03206353237873       -0.44222157183442        0.04154673224584
N           -0.92935166677739       -1.27936238468244        0.03373073943585
C           -1.41464032252819       -2.64753385343279       -0.03682967286898
H            3.82053297785938        1.12737833180364        1.07925494917579
H            4.05075163343028        1.01848238181290       -0.67503129838722
H            2.77837628004069        2.07834201892788       -0.00557268832590
H            3.59268130551344       -1.70731636281803       -0.03453114819963
H           -1.82987746895222        3.19737363245786       -0.14214828108973
H           -2.96184578316258        2.20347299490431       -1.05813928027135
H           -3.04415826739511        2.24146427364432        0.71312660499203
H           -1.07747475346623       -3.22281945135122        0.83074917660537
H           -1.06962129422702       -3.15903634959126       -0.94367636768046
H           -2.50204217316567       -2.61103927336770       -0.04173365980439
H            1.35385510099256       -2.95927770134751       -0.10867749016489
