25
 energy: 32.705071955592 xtb: 6.6.1 (8d0f1dd)
C            3.36636101085901        1.06596994161342        0.14312960781224
N            2.35692526812643        0.05758025929289       -0.00322347954453
C            2.63903292209220       -1.30069716042659       -0.08363993597671
N            1.44556470593516       -1.97528981334920       -0.14432550617468
C            0.44076739079819       -1.07840834693500       -0.06135406725530
C            0.93986308415738        0.21271492237709        0.02992626023503
C            0.07164120022866        1.37754411675378        0.11203116679230
O            0.47620795983301        2.52593576359138        0.29104629551156
N           -1.42613595799993        1.15347151563923       -0.02884029365998
C           -2.57662343468400        2.41216796755393       -0.26164535484330
C           -1.85793149974591       -0.15631629621164        0.09581777492168
O           -3.01637232713347       -0.49363758782456        0.21891967526024
N           -0.90077924878470       -1.27404375044336        0.02549137011024
C           -1.34288736870621       -2.65813099970309       -0.01012132166168
H            3.92259064757290        0.96650422207999        1.09066387966124
H            4.09768354463222        0.96996649009951       -0.66720295377584
H            2.89399091603950        2.04084106333432        0.10521266547596
H            3.60251343078084       -1.75297074878976       -0.18503552859560
H           -2.06783521930735        3.37462461357330       -0.29111368078386
H           -3.16481986134440        2.33429355844248       -1.18589829375230
H           -3.26467366082085        2.43907593199944        0.57632789236533
H           -0.94827118119215       -3.23436032474448        0.83650367932260
H           -0.97915453790417       -3.13471344669561       -0.92878381420173
H           -2.43159567464301       -2.68567257057918        0.00738752809131
H            1.38673883732911       -2.97594003187354       -0.23963706722397
