25
 energy: 6.830473069582 xtb: 6.6.1 (8d0f1dd)
C            3.31525531768776        1.11750986019401        0.12009374400610
N            2.33207014502277        0.08108440289931        0.02711697462689
C            2.62216904707766       -1.27780086661918       -0.01903925944552
N            1.42365272175504       -1.95916900641170       -0.08013051029571
C            0.41888949059005       -1.06305631450229       -0.00597934325694
C            0.91991443673220        0.22863850927646        0.06939910927936
C            0.06633310776504        1.38601628577640        0.09091058065624
O            0.46454868362178        2.55083205335120        0.16320784853754
N           -1.39960701934990        1.12885478831415        0.00995014288555
C           -2.41740462163285        2.28336426485751       -0.17768557651799
C           -1.85676821167526       -0.17085579535808        0.05310499353382
O           -3.03570234720217       -0.45848161035625        0.08352701587548
N           -0.92663258723080       -1.27133208713452        0.05262289178895
C           -1.39671383845212       -2.64773851101667       -0.02834455562078
H            3.84833402306530        1.08943342647260        1.08174333540743
H            4.06163918264391        1.00693013644017       -0.67406898300191
H            2.80597518730402        2.06962931982023        0.02238250644905
H            3.59427382842512       -1.72246676610666       -0.07043136265843
H           -1.88747287106998        3.23849697434520       -0.18483074054427
H           -3.00585239898196        2.23225800970154       -1.09923936419470
H           -3.09943624743965        2.29419187508929        0.67553739894027
H           -1.04523514130187       -3.22819595612213        0.83095524519152
H           -1.04583599645384       -3.14942587712646       -0.93967921439322
H           -2.48462109619913       -2.63078685088831       -0.02919705472225
H            1.35422685643295       -2.96353695974822       -0.14319090689320
