25
 energy: 58.316344995856 xtb: 6.6.1 (8d0f1dd)
C            3.42494481439466        0.98898367661094        0.17404337853735
N            2.40772601924843       -0.01752484126298       -0.00444384146435
C            2.70076818681877       -1.31150883128287       -0.10596384446951
N            1.55295804720690       -2.03769780885066       -0.16039074138639
C            0.50540849958518       -1.15724971257500       -0.06779448652610
C            1.03836604395423        0.11627451620483        0.02818511760549
C            0.12370349027004        1.29134084626434        0.17394502642023
O            0.58325496079100        2.40683428095454        0.38692354143730
N           -1.20442907558402        1.00836852068613        0.10560529015312
C           -3.01964033277940        2.86712452749530       -0.36685514562249
C           -1.74317124973305       -0.18893453540783        0.16702499438146
O           -2.88874945653624       -0.51804201523465        0.36019124814720
N           -0.79809296860633       -1.37640850345611        0.00391664185238
C           -1.27029396108538       -2.72794292211919        0.02316339423639
H            3.96372025774049        0.79019876816867        1.11207132321518
H            4.14048087157368        0.91277680246460       -0.64635745633356
H            2.99385018232024        1.98150910206698        0.20322124592413
H            3.66247479556165       -1.71158716973747       -0.30504165989274
H           -2.33277950816627        3.66403580855155       -0.36374299131004
H           -3.45726912531318        2.59447265008672       -1.29017933170370
H           -3.56469061880800        2.66797024855927        0.50866449166029
H           -0.82949920818167       -3.25294990682119        0.87367165813881
H           -0.94455008954971       -3.20676531949221       -0.90014910416414
H           -2.36067957677709       -2.75027613941837        0.06835914468899
H            1.52077042247219       -3.03732078314807       -0.24580470303348
