25
 energy: 39.554366549420 xtb: 6.6.1 (8d0f1dd)
C            3.32521162030065        1.80484969170752        0.19863485117941
N            2.38770488910459       -0.15104568281244       -0.05420754991433
C            2.58116059757787       -1.45097340797060        0.09771550928270
N            1.38870386024876       -2.14583923983768        0.06007419114948
C            0.39806490188621       -1.22803904821338       -0.02446148452325
C            1.01909584429390        0.02093292586683       -0.04669209202540
C            0.21630483559260        1.20645682139841       -0.10240586449876
O            0.58668154801072        2.35873391587819       -0.22040739505225
N           -1.17296912548526        0.94180414648000       -0.04741108187822
C           -2.04532494137067        2.10559733645883       -0.01779261199163
C           -1.78234521124747       -0.27458406408252       -0.04729131567387
O           -2.98944143068811       -0.38540463339099       -0.03873500949062
N           -0.95376369726175       -1.40800676653382       -0.05538896014734
C           -1.63332636772696       -2.68149361515431       -0.06419824405795
H            3.67841978160866        1.95862880513888        1.17125932436244
H            3.99982451224946        1.75873139739296       -0.62104328156318
H            2.38665665906381        2.27044272305228       -0.00159243056166
H            3.51572639623639       -1.98166825877616        0.01503763947524
H           -1.38080445823609        2.96280617055349       -0.10417140848223
H           -2.78670740529729        2.03490049143969       -0.79124976167503
H           -2.52598322001352        2.16010378093702        0.94581461366596
H           -1.38869068186845       -3.26359339339004        0.82519777824529
H           -1.38855370574336       -3.24773215987113       -0.96377167507791
H           -2.69957976452806       -2.44826397144100       -0.06333632573912
H            1.29407982366657       -3.14744769896546        0.04001100014521
