25
 energy: 26.257044448990 xtb: 6.6.1 (8d0f1dd)
C            3.20773829489757        1.52858202620668        0.15346227758104
N            2.43349771247106        0.02497039243688       -0.00710799177581
C            2.64853120589284       -1.39060030111984        0.14908635013743
N            1.43513823894044       -2.08427159265057        0.03303483168594
C            0.43134735734434       -1.19185442657569       -0.02804145242202
C            1.01956497916494        0.08048956805803       -0.02125753025209
C            0.21031793000056        1.22640712819920       -0.06262230737141
O            0.58421739759145        2.39801676750628       -0.16597559674914
N           -1.18755482580329        0.95451111243600       -0.03744517359122
C           -2.06036116590955        2.11343876718137       -0.02271308356329
C           -1.77946571193433       -0.26307705046179       -0.04587771596874
O           -2.98641229365434       -0.39517371997380       -0.04861350118770
N           -0.93126752292676       -1.39039663241242       -0.05386754535200
C           -1.60368993032419       -2.67171500315902       -0.06398489773971
H            3.63817704936135        1.81884040086415        1.10109946030621
H            3.96513375780727        1.63891250284936       -0.62476576436320
H            2.36463472418676        2.19705308219017       -0.03365792707901
H            3.55865656501953       -1.94170290288420        0.01566150413859
H           -1.40188722687196        2.97660098106559       -0.08475605735756
H           -2.76145076340324        2.04954572232885       -0.82906330327181
H           -2.57411740204685        2.15382219425479        0.92285957654590
H           -1.36196910322568       -3.25572467998426        0.82623656935274
H           -1.35545840538981       -3.23951172086121       -0.96240431379763
H           -2.67461004794932       -2.45506588557976       -0.06690182595404
H            1.33691309706735       -3.09391384577688        0.01632509690634
