25
 energy: -42.471323506473 xtb: 6.6.1 (8d0f1dd)
C            3.19525698767968        1.14033537077091       -0.05165809509680
N            2.27922710175291        0.16981625520275       -0.09200280576697
C            2.52691359780105       -1.15203791428250       -0.02459880217381
N            1.35155146293686       -1.86835375554607       -0.00547049077238
C            0.33537618390501       -0.99364482948658       -0.04495658516363
C            0.86746914249687        0.29581658450419       -0.09618849086270
C           -0.00111610416699        1.43225353285292       -0.02627359435208
O            0.30104833451213        2.60507780402902        0.03665856497799
N           -1.36949160892314        1.04227709681161       -0.02916017738961
C           -2.36095363035629        2.10826412634817       -0.04430200391821
C           -1.90114614650103       -0.22049369016523       -0.04784521587431
O           -3.09207670740452       -0.43279560391630       -0.07098587056743
N           -0.99445358885264       -1.27933586010451       -0.03264428167342
C           -1.50860531080705       -2.63645883803606       -0.01977005190885
H            4.07970245826165        0.89955130379935        0.52681089287832
H            5.27200681213186        1.06684274930942       -0.28168803425234
H            2.83119300484211        2.15089634971034       -0.05325537028838
H            3.50079184069697       -1.58509648495078        0.01265611214987
H           -1.83199425125684        3.05581013056099       -0.01798335267108
H           -2.97043853939173        2.03853328742908       -0.94676028768328
H           -3.02085347936470        2.01986373199517        0.81836300859430
H           -1.22534871920907       -3.15642977334870        0.89718129708276
H           -1.15713334675773       -3.19672474528567       -0.88782869809483
H           -2.59819204406548       -2.57376742302401       -0.06221361295358
H            1.30120600457823       -2.87405466898326       -0.00406618556830
