25
 energy: -42.166283265289 gnorm: 0.005915382111 xtb: 6.6.1 (8d0f1dd)
C            2.92131730251516        1.25189526345323       -0.19798097323719
N            2.21402718473892        0.00279950199358       -0.16392819074777
C            2.78222796866719       -1.19139027131326       -0.25977121487697
N            1.84761870131740       -2.14364561628519       -0.18359177283237
C            0.58783699638649       -1.57981792984257       -0.00259721951656
C            0.82704864533708       -0.15209858216788       -0.05082707604949
C            0.03038301201795        1.00395476254044        0.10020521107127
O            0.36325116748493        2.11077122313605        0.45588085994545
N           -1.45295594214788        0.88698718280623       -0.32753994747151
C           -2.39469722993463        1.42189040509659        0.66647735444428
C           -1.68361501690779        0.95336903908366       -1.56356263068258
O           -1.78170158534999        0.96588394862200       -2.71574021470597
N           -0.38288016278699       -2.38361511816785        0.23506668021413
C           -1.72610031495052       -2.09551016131528        0.55468038006235
H            2.76307584467260        1.80188401199574        0.73104009172743
H            3.98337561898817        1.05934134702004       -0.33146838274602
H            2.56104974610436        1.87486221785792       -1.01777099874981
H            3.83408327872543       -1.36064639872357       -0.38460043795797
H           -2.09696915072175        2.43757099712020        0.93291239032809
H           -3.40317399009407        1.42712282523161        0.26170465893688
H           -2.35302272241922        0.79543914986511        1.55550980281928
H           -1.80934274043679       -1.32789736891652        1.33050954964896
H           -2.16924165336767       -3.01949678971701        0.92839894503538
H           -2.29500614128485       -1.77947645873991       -0.32641029362265
H            1.99384269755030       -3.14193863903646       -0.19542495313726
