25
 energy: -42.245256203412 gnorm: 0.002758978541 xtb: 6.6.1 (8d0f1dd)
C            3.21463757111927        1.13577190908713        0.01689620688066
N            2.27522937188260        0.04474120434373       -0.00044437541294
C            2.54166624934203       -1.24769989737151       -0.00827320915387
N            1.39153390165792       -1.95563944682963       -0.00783544523740
C            0.35293928810638       -1.06949431278185        0.00044797614906
C            0.91182053340035        0.19704374028661        0.00560648940423
C            0.08261625726546        1.39636993565408       -0.00303140338125
O            0.49278098315204        2.52996953225704       -0.01714151467521
N           -1.26658090299730        1.06760809481893        0.00203162787704
C           -2.22628466627221        2.16778388769668       -0.00048100545609
C           -1.84571900676026       -0.18886225364155        0.00433491721270
O           -3.03015236889352       -0.35576497575786        0.00712294043606
N           -0.96587989834529       -1.29949603028279        0.00138234048130
C           -1.52611526383179       -2.63706198580324       -0.00327427000883
H            3.70909137157476        1.19381595399057        0.98733312765288
H            3.97103151304252        1.00078345622206       -0.75461773773745
H            2.67079149112112        2.06421050813304       -0.15511978441157
H            3.52592465437881       -1.67596595895391       -0.01285793954271
H           -1.67261073550754        3.10237029105967        0.00755176560189
H           -2.85243543813163        2.10641862733717       -0.88928501219321
H           -2.86512628829772        2.09759816082166        0.87851984523607
H           -1.21509062436709       -3.18561463407940        0.88572403890944
H           -1.22852437198495       -3.17410436023367       -0.90392290178629
H           -2.61054820687552       -2.53236764392579        0.00534008925219
H            1.32543610031879       -2.96417526044964       -0.01483514819709
