25
 energy: 57.042373389213 xtb: 6.6.1 (8d0f1dd)
C            3.56180553841932        0.93148723539470        0.12887651376540
N            2.55502225359580       -0.09274343963509        0.01901205788745
C            2.80026666194855       -1.40272204391770       -0.05231935694479
N            1.62318040348705       -2.08071642043574       -0.05860816453184
C            0.61231472923884       -1.14693961422526       -0.00427860852179
C            1.20369902410726        0.11130555552846        0.03777067211479
C            0.36373380747377        1.34663491754381        0.07450921842590
O            0.88133789076535        2.44946345589756        0.14146010395165
N           -0.97389566676306        1.11583343045427        0.04738809138253
C           -3.53459574333971        2.71671338629714       -0.16034533511169
C           -1.59974959814538       -0.01744862517785        0.03156355644301
O           -2.76298309108788       -0.31811748098751        0.05147444082665
N           -0.69182582356316       -1.30517509290927       -0.00946117543200
C           -1.29231293464309       -2.60710368938862       -0.03036392839934
H            3.96441697646744        0.95366694758910        1.14252424904030
H            4.36459053767556        0.68803258707881       -0.56616014343909
H            3.18415899843749        1.92316976808642       -0.09419138015717
H            3.75408306489053       -1.87274929823423       -0.07926478560034
H           -2.91544102182845        3.56892621785199       -0.14992874989808
H           -3.92876819948845        2.38887325901821       -1.08757142001293
H           -4.03848924297655        2.43609478442802        0.72742577226092
H           -0.95807677260764       -3.18363793890615        0.83522026278002
H           -1.02498516259910       -3.13497490034920       -0.95103967720788
H           -2.37563715793636       -2.49378800580496        0.01495180299532
H            1.53344221804180       -3.08714160664534       -0.09479332102005
