25
 energy: 54.148573307609 xtb: 6.6.1 (8d0f1dd)
C            3.58521845697266        0.89183374063025        0.11106796357834
N            2.61302196187371       -0.16741183853913        0.04133522743090
C            2.85538359207640       -1.46897593664512       -0.02830511491759
N            1.67666603875582       -2.14113061021305       -0.05155409282215
C            0.65813634480138       -1.21922366894176        0.00638473807729
C            1.26187225162479        0.02926845282102        0.06706887692372
C            0.42441680836746        1.25936178542339        0.08711174210379
O            0.93313885542473        2.37012653601893        0.10604115860775
N           -0.88606914721005        1.00296360719103        0.06868269636134
C           -3.90486571213668        3.17972674104210       -0.17788680080235
C           -1.50652172584767       -0.14285254250960        0.03452881136289
O           -2.69161610440295       -0.35081407362600        0.01999877015216
N           -0.65174177833867       -1.40472867001455        0.00287375854087
C           -1.28544470031163       -2.69595941015968       -0.03587043629301
H            4.00514700567204        0.95347072839219        1.11656731740896
H            4.39085799935014        0.71724640511265       -0.60099979818668
H            3.07362773592848        1.83128153063045       -0.10865232754654
H            3.82000064048209       -1.92863479017778       -0.06705625697615
H           -3.13314240244988        3.91710006936536       -0.14808530469831
H           -4.18956279509424        2.74221695183495       -1.10934986905716
H           -4.30904526506895        2.79282266483596        0.73139772277352
H           -1.00536713581066       -3.29548288552074        0.83361067332795
H           -1.03639836379805       -3.23200421794927       -0.95495063275973
H           -2.36081258959545       -2.50964518370226       -0.01159826417962
H            1.57531433370780       -3.14152659655544       -0.10532664621569
