25
 energy: 56.142171009948 xtb: 6.6.1 (8d0f1dd)
C            3.61571319675347        0.86912062857219        0.13095556707822
N            2.60119333461368       -0.15135419427371        0.04224091417273
C            2.84953313971413       -1.45921089069169       -0.03933801851414
N            1.66694015253920       -2.12694229962815       -0.05912464313695
C            0.65227294634633       -1.19354621601067       -0.00138015340081
C            1.25593875409078        0.06043087184921        0.04907103158268
C            0.42462823755880        1.29779160626636        0.09075730487258
O            0.94882908252427        2.39863310061440        0.13539364911677
N           -0.89369803774017        1.06958132791054        0.07268093795142
C           -3.77654144671025        2.90129737335599       -0.17491316006506
C           -1.55311491237838       -0.03985290098209        0.03846147681197
O           -2.71889928226023       -0.30398571629043        0.04424861147708
N           -0.65130366949440       -1.35862118105956       -0.00520775148807
C           -1.28289596281095       -2.64388954960627       -0.03422872859351
H            4.00804019119620        0.89324423893380        1.14815178982936
H            4.41566485103616        0.59445661322389       -0.55405850563874
H            3.24068291282212        1.85344382664605       -0.12261433955072
H            3.80955742779429       -1.92484661406716       -0.06531647000337
H           -3.14248187879635        3.75089824808698       -0.15679506060969
H           -4.12955815736263        2.53933845704333       -1.11286353828653
H           -4.25259348290601        2.59638225132801        0.72744849855564
H           -0.98115832340496       -3.23590352018298        0.83548160328061
H           -1.03216087118149       -3.18037625412284       -0.95497105944014
H           -2.36047006590950       -2.46561836903366        0.00127041785853
H            1.55607947471345       -3.12772264441067       -0.10437201823091
