25
 energy: 54.757874033701 xtb: 6.6.1 (8d0f1dd)
C            3.61425963665188        0.86735221975833        0.11320921124637
N            2.60714515458641       -0.15833198152676        0.04230454208516
C            2.84642205621705       -1.46072278681687       -0.02804266474335
N            1.66723031339470       -2.13394278973768       -0.05496326983358
C            0.64461379567237       -1.20822187445669        0.00179703028210
C            1.25595883254839        0.04421018757654        0.06149306486367
C            0.43814693418338        1.27534767151647        0.09167556148780
O            0.93911706882928        2.38898516875720        0.11080557737828
N           -0.87638630244026        1.02855295966629        0.08033017484913
C           -3.90995633862283        3.11631302343604       -0.18475925537908
C           -1.53931267760098       -0.07804548161615        0.03459313317130
O           -2.71611818922278       -0.30682473081522        0.02414382754924
N           -0.65713388078134       -1.40140456406841       -0.00159135046580
C           -1.28335619600625       -2.68795347201665       -0.03346559654215
H            4.01660795034931        0.91592818926964        1.12582137764126
H            4.42467710258966        0.65040505714258       -0.58083970678435
H            3.15588595343765        1.82686885956679       -0.12560124305486
H            3.81447805038236       -1.92212445471454       -0.06667608730438
H           -3.19079015049454        3.90007282248989       -0.15963112848047
H           -4.18090734016999        2.67737140714921       -1.11994274719589
H           -4.32508952373545        2.75159612664366        0.72767639390889
H           -0.99900294380573       -3.28883919586288        0.83658807479642
H           -1.03897932452577       -3.22714974874922       -0.95355194942388
H           -2.35855551091898       -2.50161325460773       -0.00311455868095
H            1.56792937635429       -3.13590757732770       -0.11831150582683
