25
 energy: 54.204585755374 xtb: 6.6.1 (8d0f1dd)
C            3.57281404907286        0.89916370420047        0.10535130246893
N            2.60451899593268       -0.16475226740474        0.03991296374721
C            2.85551661632510       -1.46548906626109       -0.02678512140331
N            1.68122943530193       -2.14586910284333       -0.04839194065131
C            0.65642642626926       -1.23083218736642        0.00821070853690
C            1.25148280901010        0.02225273796756        0.06634078600156
C            0.40318031844638        1.24530959217574        0.09670815415846
O            0.90168711787875        2.36043410208600        0.12246045089109
N           -0.90526660830327        0.97875705377528        0.08059752158567
C           -3.87800230173251        3.23413035861513       -0.18272612033677
C           -1.51692367807901       -0.17149826981570        0.04117275616766
O           -2.70046260662500       -0.38877399359870        0.02464576095414
N           -0.65250767910124       -1.42574388612595        0.00559518869237
C           -1.27910166247286       -2.72019151487908       -0.03900722749887
H            3.99251111525476        0.96787598102657        1.11064805812479
H            4.37998237777400        0.72311403441419       -0.60483093224948
H            3.06119969636969        1.83714737555697       -0.11970394876853
H            3.82306731043167       -1.91929971136047       -0.06590925938301
H           -3.11411611421357        3.97959411987626       -0.15233192015628
H           -4.16026255724643        2.79703279854361       -1.11510088411340
H           -4.27177322843030        2.83654871317397        0.72643605400921
H           -1.00549412124028       -3.31846028307332        0.83337289111199
H           -1.01784704595352       -3.25473851876098       -0.95550176900211
H           -2.35588282244291       -2.53940473012132       -0.02565015290235
H            1.58623846274616       -3.14727825105633       -0.09847940779010
