25
 energy: 57.572319117135 xtb: 6.6.1 (8d0f1dd)
C            3.52919586284900        0.96402029678662        0.11938746820976
N            2.50921548447923       -0.04261202733364        0.00966447911773
C            2.75863900926798       -1.35307256649591       -0.03035291078676
N            1.59144098256674       -2.04611390339599       -0.05318921435876
C            0.57456864154969       -1.11387388764253       -0.01455220340421
C            1.14903711299002        0.14843566927023        0.02707699256839
C            0.28002999218541        1.37543592313344        0.07145158452451
O            0.77866968803368        2.48533882952254        0.16213110531536
N           -1.06993629408411        1.12830063427875        0.03049791258304
C           -3.28375326674627        2.61480936247274       -0.15626946848236
C           -1.64430346810951       -0.04392280825564        0.02681683525111
O           -2.80524036098581       -0.35926304401698        0.05804546327087
N           -0.72756354797950       -1.28933918121921       -0.01149207491127
C           -1.29595568500212       -2.60509792437662       -0.03003026264083
H            3.94643801594775        0.97816128366002        1.12945755208976
H            4.33430885029482        0.70377879450928       -0.57357085007683
H            3.14537221485320        1.95261804521042       -0.09926137335591
H            3.71800080000246       -1.80588399979391       -0.11453401450390
H           -2.74072828925466        3.52036537906692       -0.14451267948390
H           -3.71186625784299        2.30665561575966       -1.07560364539751
H           -3.78872939728019        2.32320795332941        0.72590825722056
H           -0.94946866889352       -3.15902049057552        0.84282874321766
H           -0.99692078410817       -3.12022296639717       -0.94425907305004
H           -2.38037250789281       -2.52454719552286        0.00103568956921
H            1.52989816744215       -3.05609897137954       -0.08077326706756
