25
 energy: 12.645506980203 xtb: 6.6.1 (8d0f1dd)
C            3.37065159535907        1.10236230934862        0.09898806984807
N            2.38103907636521        0.07858857367818        0.01770595233460
C            2.65092270662131       -1.28361463813579        0.00333763853701
N            1.45424505338881       -1.95402192634358       -0.04691578608050
C            0.45938747233138       -1.03744405020614       -0.00913557517529
C            0.97588458071563        0.25222946664946        0.02841441343818
C            0.13689607518933        1.42827552264013        0.04907854136718
O            0.56470475477269        2.57874021173260        0.10497857410355
N           -1.37967836065473        1.18708189937443       -0.01211489629539
C           -2.53654837745495        2.22993113995166       -0.10458768289841
C           -1.81006953931825       -0.11056593381341        0.00678384915904
O           -2.98613757172113       -0.41310348854145        0.01947534573089
N           -0.88636569668805       -1.21858137693156       -0.00033470101972
C           -1.39780344771234       -2.58796525843259       -0.04134539259000
H            3.83540215550306        1.13711139346677        1.08990345958189
H            4.15819974243806        0.91702040132903       -0.64082086615943
H            2.89111607857136        2.05523615122522       -0.08785789944581
H            3.61238714684486       -1.74495509188861       -0.00954233005095
H           -2.10798226529940        3.23444992776467       -0.09348499964073
H           -3.15623129371168        2.11844673538554       -1.00129032345188
H           -3.22387765250261        2.15194135738408        0.73781358033534
H           -1.06969637844422       -3.16337259819724        0.83095918555539
H           -1.06952771848180       -3.11959719042819       -0.94259948225521
H           -2.48343665905436       -2.54170484953106       -0.03888229164168
H            1.38583019944011       -2.96134668588524       -0.10125379706720
