25
 energy: 54.537455900585 xtb: 6.6.1 (8d0f1dd)
C            3.58163685278588        0.90558333241744        0.10421125595177
N            2.60653211911230       -0.15386395323820        0.03307332592649
C            2.85354873433176       -1.45680083914697       -0.02706585795683
N            1.67998524599765       -2.13885490219672       -0.04803151887950
C            0.65070684310430       -1.22609544351618        0.01124866465581
C            1.25190701549723        0.03251700130440        0.06894906087306
C            0.42472080506908        1.26259203447337        0.10329433708131
O            0.91516562282144        2.38148194632904        0.12245827668969
N           -0.87947632720826        0.99474070284836        0.10154592657182
C           -3.85872090543961        3.16915627082611       -0.18574483397259
C           -1.52739665848865       -0.12384519428599        0.04423065140055
O           -2.70359932709918       -0.35395246254090        0.01862185919560
N           -0.65353836245760       -1.42588371869652        0.00794729162297
C           -1.27852325372934       -2.71969138493169       -0.03749037726520
H            3.99213815410582        0.97404337616864        1.11231354762127
H            4.39434710642502        0.72161299755203       -0.59940997921836
H            3.08355068763019        1.85489181072705       -0.12077518026370
H            3.81934003636996       -1.91554698992405       -0.06384368304574
H           -3.06927285636574        3.89904430098619       -0.15789584023050
H           -4.15097220236759        2.74222227093473       -1.12196580212388
H           -4.24730832300514        2.76752845037472        0.72753486945416
H           -1.00270443058726       -3.31620168759213        0.83636554150069
H           -1.01767219114231       -3.25625193898338       -0.95449146053127
H           -2.35640907850767       -2.54204430645278       -0.02806540059877
H            1.58522642298804       -3.14147296093000       -0.09817388808595
