25
 energy: 57.357861321221 xtb: 6.6.1 (8d0f1dd)
C            3.50963812350942        0.98589686694558        0.11652734815054
N            2.49325927037438       -0.02281682591352        0.00988277834059
C            2.74453454977331       -1.33731308857472       -0.01457597755390
N            1.57514315451904       -2.02899312341390       -0.05170633044344
C            0.55978467914470       -1.09794677697470       -0.02064467899875
C            1.12830452318238        0.16497634224973        0.02434048289425
C            0.25344796034213        1.38747405831674        0.06915645575580
O            0.74815380055608        2.49978053469271        0.15762757924442
N           -1.10365150173926        1.13992284872696        0.02200996053733
C           -3.19445350363743        2.56118018818062       -0.15242581228534
C           -1.66505409941498       -0.04705169577615        0.02477074784687
O           -2.82669110581359       -0.36615386510759        0.05638041470092
N           -0.74696795883464       -1.27270970289481       -0.00955223474793
C           -1.30703028168094       -2.59447118903980       -0.02698238570470
H            3.93539460097450        1.00283538786526        1.12292827956244
H            4.31323675918709        0.73768339125830       -0.58286783113133
H            3.11030975972375        1.96956193816545       -0.09463502990920
H            3.69780878958830       -1.79486337814541       -0.11864936714508
H           -2.65672570204784        3.47270241718800       -0.14223544525382
H           -3.64200464751985        2.26678317859027       -1.06820356492338
H           -3.71694554021562        2.28526486812760        0.72495091591214
H           -0.96109232276675       -3.15022641396608        0.84551409660234
H           -0.99821372213566       -3.10493801177679       -0.94013808851619
H           -2.39290270861446       -2.53279028739345        0.00229605587755
H            1.52224332842960       -3.03715477277122       -0.08327967176429
