25
 energy: 54.347666989502 xtb: 6.6.1 (8d0f1dd)
C            3.56395717014300        0.90545095362163        0.10236182280355
N            2.60283445474992       -0.16212936131643        0.03735122449088
C            2.85720756422216       -1.45863971577639       -0.02387795148963
N            1.69268880697818       -2.15178491127502       -0.04457669306913
C            0.66076394079314       -1.24258596669637        0.00988202428832
C            1.25063609010908        0.01768557447219        0.06591764081123
C            0.41926206429405        1.24675695345968        0.09687727561235
O            0.92478729688989        2.35937338244982        0.12277734925440
N           -0.89647680433070        0.99944540110160        0.09332624504055
C           -3.84826666908447        3.19466496289926       -0.17936630193403
C           -1.52622391749928       -0.13368614187355        0.04351906959535
O           -2.70014028735695       -0.37413216447324        0.02498880555894
N           -0.64186475321794       -1.43644855923151        0.00541782309386
C           -1.27862670349567       -2.72615378345553       -0.04042856061590
H            3.97916451715982        0.98056359214524        1.10667735861055
H            4.36628414693396        0.73935412032331       -0.61154530709650
H            3.05895386613770        1.84414572036993       -0.12185981823148
H            3.82552427860278       -1.90655210039534       -0.06146239084932
H           -3.09049998839568        3.94360561104359       -0.15130608656525
H           -4.14014997054670        2.78325738560827       -1.12026437975783
H           -4.23973277742620        2.80727635294521        0.73553257586902
H           -1.01205559137629       -3.32971454025840        0.83203447470864
H           -1.02814350232954       -3.26930495630874       -0.95653319522650
H           -2.35126494843864       -2.52553703370840       -0.02825855951398
H            1.61007770207457       -3.15480012639511       -0.09730143834718
