25
 energy: 30.366653880684 xtb: 6.6.1 (8d0f1dd)
C            3.41854115914067        1.06661361421163        0.10514581348653
N            2.41627413094431        0.05587814970364        0.00580476620383
C            2.67869776232150       -1.30765646335361       -0.01130163477749
N            1.48166538444372       -1.96959925687394       -0.05004789212033
C            0.48964701428840       -1.04696811089081       -0.02482662236512
C            1.00972111582969        0.24111743456705        0.01927148936638
C            0.17837539342572        1.42893587680002        0.04472508547378
O            0.62092356370232        2.56901245794361        0.13100149252904
N           -1.37719469242469        1.21895066415406       -0.02572832571599
C           -2.66750223776845        2.27309380453996       -0.12321006716430
C           -1.78573686007716       -0.08271461487844        0.00810532490170
O           -2.95348860239045       -0.40966670455252        0.04455933485895
N           -0.85379181560631       -1.21152304557562       -0.01029168707310
C           -1.37009098334925       -2.57649518392941       -0.03532836202393
H            3.87385914064605        1.09556092046483        1.10083465562760
H            4.21372076231678        0.86289050600296       -0.62201055758511
H            2.96544359254473        2.03010956674965       -0.08714598168314
H            3.63242960848795       -1.78125400833053       -0.04683752491110
H           -2.28185815437498        3.29449529912766       -0.12133885036384
H           -3.28959061135057        2.13882515628544       -1.01851785021553
H           -3.35781167930721        2.18164208295280        0.71356170690759
H           -1.03153018727457       -3.15138808520331        0.83378338570117
H           -1.04455664655309       -3.10374628365033       -0.93964089567501
H           -2.45552943013515       -2.53934956888923       -0.02173616708620
H            1.42709046524046       -2.97642909792812       -0.09166413426580
