25
 energy: -5.639176948922 xtb: 6.6.1 (8d0f1dd)
C            3.26778683338870        1.16142392827303        0.08896021379758
N            2.31678694001831        0.10127578538110        0.03398651826482
C            2.60763008707315       -1.24623001640280        0.02891170180408
N            1.42210831722350       -1.94221424631206       -0.00596377285895
C            0.40899943785148       -1.05372593949333       -0.00688479396208
C            0.92741741416088        0.23535761359495        0.02079569287141
C            0.11347275652799        1.39503527341245        0.00641040833279
O            0.50256324302242        2.56740924895134        0.00808977690758
N           -1.29254777704489        1.07516199407363       -0.02358335077444
C           -2.28146435778730        2.16212869899267       -0.05821008833421
C           -1.81772085088901       -0.18186214185209       -0.03521925622912
O           -3.01407224598160       -0.39165707799371       -0.05670245152002
N           -0.93046207268508       -1.28362932556599       -0.02759622489877
C           -1.45666647450363       -2.63208672375922       -0.05663963617493
H            3.74247688570781        1.20629142713994        1.07370215017058
H            4.04210051450971        1.01564865209122       -0.66900393243364
H            2.73719648938647        2.09211967467546       -0.09115905690512
H            3.58364874433626       -1.66501126776881        0.03719304954418
H           -1.74879331053356        3.11172673967391       -0.03623375994194
H           -2.89214031683615        2.10839600469432       -0.95962681998858
H           -2.94644876703114        2.09884175277119        0.80238381005616
H           -1.14921432198352       -3.19123742013147        0.83123272825108
H           -1.12805384968963       -3.16660608925018       -0.95265852757246
H           -2.54211681227923       -2.54989953092426       -0.06871465107091
H            1.35668768090521       -2.94710602751293       -0.02663616917126
