25
 energy: -3.457776786925 xtb: 6.6.1 (8d0f1dd)
C            3.29491783185815        1.14843174431033        0.09223106890519
N            2.33214105155021        0.09861518738314        0.03258836264710
C            2.61700557824290       -1.25506181259464        0.02390064212123
N            1.42519736396239       -1.94379858782489       -0.01979312122930
C            0.42022843777466       -1.04534722290188       -0.00579457373631
C            0.93723260584283        0.24505891571786        0.02940641463803
C            0.11219030014801        1.40533304964669        0.02324167336504
O            0.50795944092864        2.57500600209716        0.03558171994516
N           -1.31568291555863        1.10111725915580       -0.01707420533281
C           -2.34372123510084        2.17507531144546       -0.06815780176682
C           -1.81689111837602       -0.16700198146456       -0.02257777382868
O           -3.00913364727992       -0.40095066599622       -0.03707067743422
N           -0.92080150547688       -1.26631203913844       -0.01823031199501
C           -1.44268854467338       -2.61984396186342       -0.05316597540793
H            3.76942799625444        1.19179734839396        1.07770642799252
H            4.07260668675790        0.99494702287287       -0.66243479089669
H            2.77418244465115        2.08282047810087       -0.08927493201420
H            3.59083093115749       -1.68508241337365        0.02840940953606
H           -1.84128255548034        3.14260511833626       -0.04999336458503
H           -2.95749061216373        2.10926576515080       -0.96764805453598
H           -3.01561032426217        2.11284588822575        0.78740138953677
H           -1.13101747114457       -3.18513719584052        0.82999385160508
H           -1.11413410454734       -3.15282400540618       -0.95098763039808
H           -2.52804267101020       -2.54254164389048       -0.06252968277461
H            1.34787995215545       -2.94886001706753       -0.04808492635313
