25
 energy: 56.637613090316 xtb: 6.6.1 (8d0f1dd)
C            3.48903720357473        1.00659715517175        0.11354291368860
N            2.47635719904464       -0.00383994291662        0.01008886327022
C            2.72840441526292       -1.32458626828862       -0.00130462618566
N            1.55446206127118       -2.01393081511854       -0.04938314025703
C            0.54295240468256       -1.08238843824335       -0.02337489577562
C            1.10528671140148        0.18137768191142        0.02067606102087
C            0.22720226876094        1.39872859034117        0.06512972162952
O            0.71555645187860        2.51396168696466        0.15565023778366
N           -1.14152247705457        1.15043656564555        0.01610849827933
C           -3.09775865877283        2.50933886702708       -0.14858929476563
C           -1.68732208195713       -0.05292143356545        0.02173767320796
O           -2.84985472441272       -0.37409097237127        0.05513325839977
N           -0.76852991066146       -1.25834786976026       -0.00832328860955
C           -1.32089626779377       -2.58743043855774       -0.02508469984871
H            3.92318568139063        1.02646350402417        1.11641747122737
H            4.28988149636115        0.76855276415287       -0.59313392940936
H            3.07526151545998        1.98525899550459       -0.09152788365302
H            3.67460636578486       -1.79427856158308       -0.11224501242860
H           -2.57180276011872        3.43190259660738       -0.14480488214326
H           -3.56756805256463        2.22814019995096       -1.06016252128910
H           -3.63913798250113        2.25200592237591        0.72526711014181
H           -0.97691245097450       -3.15153307247226        0.84398778358373
H           -1.00640184958158       -3.09623112878703       -0.93813762234199
H           -2.40766854190582       -2.53906031812074        0.00218160388643
H            1.50021384578605       -3.02110908543437       -0.08232239329824
