25
 energy: 0.302000203786 xtb: 6.6.1 (8d0f1dd)
C            3.32076360114373        1.13402300724194        0.09467999096468
N            2.34841839701960        0.09353181651191        0.02892406952916
C            2.62790421721250       -1.26444304833824        0.01813194465114
N            1.43291662567438       -1.94734970347062       -0.03232778095485
C            0.43297215492161       -1.04051532340340       -0.00594105898346
C            0.94952230986269        0.24935918173130        0.03372662798080
C            0.11592990946684        1.41389004895855        0.03787857668817
O            0.52255419707474        2.57808497071066        0.06182981522276
N           -1.33670450452678        1.12853849579933       -0.01202019820220
C           -2.40745198755259        2.18890990306508       -0.07921403442731
C           -1.81431873976634       -0.15032429995906       -0.01040233385289
O           -3.00202748588442       -0.40723274917535       -0.01818403431991
N           -0.90983831124572       -1.24979313934790       -0.00922513401118
C           -1.42803602766006       -2.60834173668061       -0.04935109345456
H            3.79217089790013        1.17557865497094        1.08195724979845
H            4.10223161374882        0.97057843096007       -0.65519019110716
H            2.81289313872242        2.07402257261549       -0.08905974599098
H            3.59819571179038       -1.70522220894361        0.01881450642839
H           -1.93082685976474        3.17020676840948       -0.06335730257968
H           -3.02490879240107        2.10747540821693       -0.97673240517437
H           -3.08526687351239        2.12284272804971        0.77179948019176
H           -1.11151291308816       -3.17746866210134        0.83017825407558
H           -1.09939330812597       -3.14061873045847       -0.94852973324469
H           -2.51339840375436       -2.53901424362255       -0.05567353949895
H            1.35404175783043       -2.95327499181469       -0.07036647107395
