25
 energy: 37.588519422767 xtb: 6.6.1 (8d0f1dd)
C            3.44824932374607        1.04824185826715        0.10807473695969
N            2.42674809978676        0.05962929006919       -0.00098590095819
C            2.68478841039619       -1.30905271810705        0.01115622517388
N            1.48636983071339       -1.97206591286909       -0.04819300828390
C            0.50327500260818       -1.04608762583497       -0.02887313835904
C            1.02129033586025        0.24111218613085        0.01527224202367
C            0.17126921017793        1.43440480612828        0.05110646238319
O            0.63650141234762        2.57029946444319        0.13944140709370
N           -1.37905250947281        1.22571007211698       -0.02565606822544
C           -2.71896665492550        2.28786842143364       -0.12497870412101
C           -1.77921698395213       -0.09314784947679        0.00866067287857
O           -2.95193250660040       -0.41347471046784        0.05254118430835
N           -0.84729656169427       -1.20241852083944       -0.01071595901963
C           -1.35247451238875       -2.57182062426020       -0.03193836711189
H            3.90471218821162        1.05987541551594        1.10392512169562
H            4.25015293067630        0.81651736263971       -0.60888310687925
H            3.03127608850904        2.02106892934185       -0.08767819645906
H            3.63042782442935       -1.78920314367832       -0.07141388302981
H           -2.36185201394013        3.32487837445227       -0.13077672851775
H           -3.33972025041194        2.14064248400410       -1.01776684801961
H           -3.40739908191063        2.18437450938185        0.70294925230368
H           -0.99664131743446       -3.13772113265255        0.83667987082800
H           -1.01976828992715       -3.08884106057411       -0.94071546958174
H           -2.43714195574955       -2.54922647528375       -0.01194360922372
H            1.44430300718900       -2.97918367664171       -0.08743221159598
