25
 energy: 56.638752204258 xtb: 6.6.1 (8d0f1dd)
C            3.60187640649182        0.87786211643295        0.11911945237233
N            2.56674707791887       -0.12180033960427        0.02824641566026
C            2.81470700911505       -1.42598326086147       -0.04114726483457
N            1.64488843167754       -2.11111657562996       -0.05613002741388
C            0.62633415684637       -1.18021149975380       -0.00479984350205
C            1.21797574224371        0.07834258092162        0.03942946698579
C            0.36423425341120        1.31085095919821        0.09009535311615
O            0.87303569391871        2.41576291886525        0.16047233333544
N           -0.95801926953661        1.06760918189129        0.06279733120077
C           -3.59740592214424        2.83999717015343       -0.16858923596593
C           -1.57289260168928       -0.06981580915905        0.04322212122829
O           -2.73851284851655       -0.33703029390285        0.04822286531212
N           -0.67215585330138       -1.36501864174789       -0.00343065840416
C           -1.27947586697145       -2.66030382836868       -0.03826384701518
H            3.99196789212978        0.89783508202261        1.13657311345058
H            4.41238233497785        0.58512902780321       -0.55231913161678
H            3.24602720100588        1.86400446813575       -0.14439351830088
H            3.77494533523152       -1.88560162190977       -0.07499178421158
H           -3.06050421501135        3.75052032710768       -0.15362697843283
H           -3.96646489302954        2.48727030230563       -1.09991944741252
H           -4.05206888237631        2.50662923440858        0.73033520908707
H           -0.97428556477556       -3.23392182662799        0.83775265508056
H           -1.00730758349487       -3.18224138045066       -0.95726324928442
H           -2.35762219215670       -2.51456070266111       -0.01742517413583
H            1.55120707014905       -3.11655751850886       -0.10237351462427
