25
 energy: 57.544373182266 xtb: 6.6.1 (8d0f1dd)
C            3.56844546889518        0.91960046551102        0.12242267180386
N            2.53992693825524       -0.08200572979454        0.01352635740099
C            2.78628819404499       -1.38822288151332       -0.04522410655784
N            1.62092157998475       -2.08161361634965       -0.05445740984037
C            0.60338368329786       -1.14679253991302       -0.00839200191233
C            1.18690830992803        0.11433532932464        0.02882900895158
C            0.33000763860850        1.34661163692461        0.07551716824460
O            0.83637602878379        2.45308265928689        0.16879556161619
N           -1.00739225634734        1.10400694440081        0.04510457369721
C           -3.44834303329539        2.72293005374831       -0.16217552420993
C           -1.60444424266324       -0.04361352455755        0.03537718093471
O           -2.76627776267476       -0.34398864111726        0.05546652924314
N           -0.69435851388058       -1.32548329578739       -0.00961611448688
C           -1.28698686612261       -2.62893255960587       -0.03446854361025
H            3.96966735351624        0.92977778456824        1.13911318776514
H            4.37490037527778        0.63304753172191       -0.55777821767596
H            3.21373500734094        1.91491434018864       -0.11914240327400
H            3.74604776090851       -1.84350741897678       -0.08538814591128
H           -2.90923098092107        3.62695787276505       -0.14899705959271
H           -3.84434584605833        2.39146555893021       -1.08679664266553
H           -3.92668017684312        2.40750309352682        0.72654308618231
H           -0.95960696911016       -3.19633539179624        0.83812300405166
H           -1.00221690639727       -3.15091834142019       -0.94992446740745
H           -2.36947585183594       -2.50149845496768       -0.00872027420505
H            1.55568421485194       -3.09447390210304       -0.09132304249294
