25
 energy: 131.454750670491 xtb: 6.6.1 (8d0f1dd)
C            2.77100070771496        1.57883452382767       -0.06470884984783
N            2.46246203786175        0.21146431622321       -0.01393812857279
C            3.64323439447865       -0.57167988377062       -0.03241879491956
N            1.40696496513095       -2.07791071381815       -0.04904097982038
C            0.46912601790259       -1.20852988317412        0.00720450412995
C            1.00411016664699        0.11536197599125        0.06677246495783
C            0.11279261310897        1.26876037668277        0.08194148645047
O            0.45357300299781        2.43930740891096        0.12356016861907
N           -1.26202710126375        0.98745059923870        0.05015805013586
C           -2.19717333853821        2.10902525585963        0.08697407802191
C           -1.82416623844950       -0.25691588419774       -0.01476659017074
O           -3.02561531200517       -0.39786594908289       -0.06837875900495
N           -0.94758006011227       -1.33893794971862       -0.02681582522118
C           -1.63663150845226       -2.62213222728399       -0.09784071486780
H            2.85406694066825        2.09007723551954        0.88057367946483
H            4.97918272731467       -0.00174346865054        0.54320913392322
H            3.02081990124169        2.02518619214145       -0.99065796148504
H            4.15143840053230       -1.48810277493245       -0.14727555922266
H           -1.59237188368746        3.00656540696582        0.16145932216797
H           -2.80873206372758        2.16906176251745       -0.81944314793956
H           -2.87465486837284        2.00353896040544        0.93442554525790
H           -1.41522115578375       -3.24407011052926        0.76852246592320
H           -1.39383386393457       -3.15341635541334       -1.01989243785851
H           -2.70690482223835       -2.38288236411537       -0.08946867192125
H            1.15689151514715       -3.04455692372116       -0.09222054281154
