72
 energy: -99.175428761497 gnorm: 0.005393151302 xtb: 6.6.1 (8d0f1dd)
N           -1.84042711276486        2.81347183823350        2.30390536164126
C           -1.77090960019528        2.09175713887760        1.28827991846854
C           -2.88445535834747        1.89664468813639        0.29688413291403
C           -3.36137493274750        0.45315922205974        0.35220891291699
C           -4.25625675615430       -0.01888157782905       -0.61017934879477
C           -4.73395147479718       -1.31862086749477       -0.57907821802195
O           -5.60653263900849       -1.84940241170478       -1.45923280576977
C           -6.18293608383807       -1.02404345693394       -2.44413488687230
C           -4.29597339689564       -2.20131797378164        0.44598932964707
O           -4.80559781772196       -3.44716740901941        0.39524546042033
C           -4.48909727906979       -4.36026440263005        1.42046965853362
C           -3.40716228828222       -1.72609046050472        1.39735637348444
C           -2.95014620237589       -0.41521436185267        1.35179655266275
C           -2.27183879964369        2.20053822587123       -1.09568124384279
C           -1.33623106499774        1.10292144552821       -1.62945772853173
C           -0.03950318851216        1.03328754091405       -0.92114505957544
N            0.58266670898237       -0.08477419714759       -0.56958292836978
C            1.95422897405080       -0.03355292110408       -0.12309033908578
C            2.92942424835517       -0.19779802701689       -1.30343461043575
C            4.35177007492735       -0.15580041264441       -0.80604808635451
C            5.07014889284482        0.96057714130861       -1.02189118498833
C            6.81528510938209        2.56512607020737       -0.75724600809087
C            6.46344811717831        1.28710257744565       -0.72610103865114
O            7.32001182456669        0.28376022530706       -0.45564092674607
C            8.63214097095232        0.70316451276095       -0.15451600993552
C            4.79847708699072       -1.35385904278985       -0.06224404111226
O            5.71460754645209       -1.11610183197305        0.90631123202385
C            6.22538314497335       -2.27048169662550        1.53231013067947
C            4.29457576486433       -2.55557269772820       -0.29032442509453
C           -0.01764451955455       -1.38558898456222       -0.74371371946676
C           -4.10617500504488        2.82834876056124        0.55089875562284
C           -4.79219300934457        2.50010022085458        1.87456415060008
C           -3.75005085714166        4.31163266816745        0.50749102736351
H           -4.59620281080766        0.64585026964750       -1.38689320176803
H           -6.71683627033169       -0.18004677520045       -1.99730748369438
H           -6.89069563307428       -1.65639919145053       -2.97642696384901
H           -5.43184907225943       -0.65229198589150       -3.14875304383709
H           -4.80009870462402       -3.98586277443797        2.40015265360922
H           -5.04554623145251       -5.26570351039683        1.18681564119518
H           -3.41855112564298       -4.58810304405957        1.43891645122171
H           -3.07146941577062       -2.36682627852519        2.19646077151373
H           -2.28479699232733       -0.07444668889732        2.12977129719181
H           -3.08104364004968        2.33256412308768       -1.81303227349377
H           -1.72342947134010        3.14167083285151       -1.04075297434596
H           -1.85187390725452        0.14425210966633       -1.61676181684507
H           -1.12136139556723        1.35222653214044       -2.67714363062983
H           -0.85710167845892        1.54496668994870        0.98050817867000
H            0.52275549936701        1.94984687674507       -0.81652367654349
H            2.13004961045053       -0.82902236620267        0.60437111724423
H            2.14487261437599        0.92654328464295        0.36217714182675
H            2.75947546777158        0.60639627320846       -2.02054010999870
H            2.73631306428475       -1.14676941400675       -1.80337169928410
H            4.55815909968266        1.77950638544556       -1.51429955599201
H            6.34021840896346        3.49244455435946       -0.97152130408751
H            8.63547895779040        1.37831463692525        0.70787695727564
H            9.07344310550939        1.22880601828935       -1.00824342611405
H            9.20405155942928       -0.19427917576399        0.06948856505033
H            7.01978283525975       -1.93972418737111        2.19742514114375
H            5.44026437895266       -2.77754031943409        2.10604398648528
H            6.62165592020833       -2.97264377782435        0.79131767674811
H            3.62973336419205       -3.01581969635233       -0.98068056990962
H           -0.14814869378409       -1.62363711783926       -1.80167035902674
H           -0.99286474193453       -1.42304127535807       -0.25273219675035
H            0.62475432140907       -2.13901666953643       -0.29519632442953
H           -4.82022401841781        2.62883340071397       -0.25630688104967
H           -4.11972384859823        2.70080009982942        2.70237459412231
H           -5.09704366013075        1.45703018638210        1.91145421381999
H           -5.67741023543379        3.11989774190947        1.98939568147586
H           -3.02386004899521        4.54811853301505        1.27898816486177
H           -3.35492746394132        4.60721021337389       -0.46080066038706
H           -4.64587430125265        4.89810202066934        0.69363197888294
H           -1.01727032727732        2.89487344531223        2.89208439504172
