25
 energy: -42.128058576326 gnorm: 0.006056821754 xtb: 6.6.1 (8d0f1dd)
C            3.06556118970635        1.02674607136295        0.19509468419757
N            2.29023230397480        1.93426371916714       -0.62568339486953
C            2.39632867621109       -0.30585055871582        0.17418153341406
N            0.75404655074014       -2.79741307925489       -0.28832155029288
C            0.28205963907558       -1.63497154794866       -0.10114498723173
C            1.05029512133185       -0.37550991336412       -0.03147933728476
C            0.30968946468735        0.84690147584871       -0.11016121294577
O            0.92620951994453        2.01431076405828       -0.22756480857130
N           -1.01283067485306        0.85341733322494        0.01283188020947
C           -1.78655377870871        2.08086053862043        0.02233347172717
C           -1.77750012621214       -0.34534086643512        0.14272208139174
O           -2.96164741928296       -0.26776048501104        0.30433412796266
N           -1.08334945792101       -1.51972831901413        0.04228319876496
C           -1.84501381701627       -2.75730317728963        0.03773172443012
H            3.19218716606943        1.36776186245709        1.23938571322923
H            4.05849045449315        0.96752882230791       -0.25735058171767
H            2.62788231079477        2.89420331293962       -0.64271801668269
H            2.98435951746436       -1.18507761214173        0.37676561567131
H           -1.12319137378979        2.93597980974934       -0.05547321307328
H           -2.48972963174734        2.07039507522279       -0.81115060559507
H           -2.36632503929334        2.13205188225853        0.94460834584454
H           -1.54696790221317       -3.37403350901011        0.88480774956602
H           -1.62747177830261       -3.30741102047507       -0.87749322067624
H           -2.90394569637920       -2.51964733158320        0.09903009617814
H            1.74761629532717       -2.91613470537575       -0.41639767574753
