  25
        -42.12813023
 C          4.1928640865        0.7529951929       -0.0428468736
 N          3.0651105825       -0.1360204442       -0.0217568854
 C          3.0791370279       -1.4469453865        0.0028715057
 N          1.8499726678       -1.9508779935        0.0307569871
 C          0.8830747271       -0.9041400053        0.0319046006
 C          1.7274933289        0.3027559817       -0.0078243933
 C          1.3009067444        1.5537363688       -0.0363030251
 O          0.8469012506        2.6094270190       -0.0589892827
 N         -3.5986578614        1.1483791639        0.0423859777
 C         -2.3966699245        1.8537788461        0.2351417492
 C         -4.1543607931        0.1099829697       -0.0993547422
 O         -4.8489983287       -0.8056854980       -0.2403302374
 N         -0.3648809439       -0.9483073133        0.0580287806
 C         -1.1407601564       -2.1526150105        0.0939410792
 H          4.2180964638        1.3538614724        0.8690718927
 H          5.1131403605        0.1765181990       -0.1139260757
 H          4.1257991599        1.4257416846       -0.8994369171
 H          3.9800512023       -2.0367257358        0.0030566944
 H         -1.5393441381        1.1730888743        0.2494475118
 H         -2.2839244975        2.5774544440       -0.5743343971
 H         -2.4549896856        2.3957742649        1.1810787489
 H         -1.1662644143       -2.5478767369        1.1130715427
 H         -0.7587769561       -2.9294857448       -0.5742044958
 H         -2.1580106473       -1.8953425232       -0.1958078428
 H          1.6206313277       -2.9331838757        0.0572552244
