  25
        -42.13731963
 C          3.0684129780        0.8575397613        0.7879035090
 N          2.3253985844        0.1313192662       -0.2770957908
 C          2.6224779582       -1.3206525081       -0.2457753292
 N          1.4491468066       -1.9113866183       -0.1189086305
 C          0.3767232933       -1.0277479909       -0.0737439867
 C          0.8853696658        0.2377692111       -0.1714909134
 C          0.0611775454        1.4157175315       -0.1594138384
 O          0.4604322856        2.5536426088       -0.2354381001
 N         -1.2888800754        1.0737906114       -0.0411549386
 C         -2.2553830473        2.1622977136       -0.0215302310
 C         -1.8343155799       -0.1913017020        0.0651108149
 O         -3.0119023735       -0.3808349210        0.1692979842
 N         -0.9306046047       -1.2855807726        0.0456034964
 C         -1.4615701017       -2.6302862918        0.1600577946
 H          2.7688606851        0.4740290226        1.7602278923
 H          4.1361862118        0.6993537432        0.6513905572
 H          2.8311897675        1.9190317825        0.7245748564
 H          2.6750001123        0.5302829077       -1.1699043830
 H         -1.7102511067        3.0992148359       -0.1091717042
 H         -2.9545994815        2.0510359130       -0.8503302249
 H         -2.8217774381        2.1382305570        0.9093732556
 H         -1.0820661972       -3.1173896957        1.0587941860
 H         -1.2094520001       -3.2192839675       -0.7221904431
 H         -2.5458035719       -2.5475748420        0.2328153202
 H          1.3714408377       -2.9188175460       -0.0593124694
