25
 energy: -42.145626991859 gnorm: 0.006946176912 xtb: 6.6.1 (8d0f1dd)
C            3.49090582636970        1.04088277616900        0.03491126797120
N            2.43737315026467        0.06461325935834       -0.01401307884764
C            2.59119818294690       -1.26868207609820       -0.03273150083473
N            1.37103282790002       -1.84961000934652       -0.03658992992514
C            0.40076095030054       -0.86413946680938       -0.02035424776009
C            1.08068356343885        0.36066945578861       -0.00008556897166
C           -0.54147899070043        2.08490612971546        0.01969819332689
O            0.73499807793714        1.64083413893075        0.03026378912080
N           -1.59242174620923        1.24779762102699        0.05182665917711
C           -3.04166632090208        1.39395959684092       -0.00239805487773
C           -1.79142098952255       -0.07693465321234        0.10656375248218
O           -3.17234927070124       -0.02933483596587        0.01627544636967
N           -0.94229692566148       -1.12377143880598       -0.00831925462878
C           -1.46544968862281       -2.47436834876193       -0.03221143890991
H            3.79426095207819        1.22769857514875        1.06789851689046
H            4.34947859169691        0.68097975230383       -0.52913105405278
H            3.13307225688680        1.97356934562438       -0.39758357510964
H            3.52545487977765       -1.78594390272108       -0.05113951091180
H           -0.66108104926366        3.14795507157957        0.06276068552646
H           -3.41604120580942        1.83258973410595       -0.92925020301660
H           -3.48473452399335        1.86720135945108        0.87632306537561
H           -1.14093490859305       -3.03280178959029        0.84759125500375
H           -1.14462118873349       -2.98763489401581       -0.93984381531989
H           -2.55129912114677       -2.41219180926333       -0.02925248301738
H            1.19700818436198       -2.84000504984958       -0.06003729715333
