  25
        -42.15971952
 C          2.9172779147        0.8622429024        0.4378940077
 N          1.9073811600       -0.1196094591        0.1065305267
 C          2.2177156117       -1.3074339312       -0.3549005570
 N          1.2775891887       -2.2149510858       -0.7458683894
 C         -0.0935765635       -2.0640016309       -0.4085252246
 C          0.5840723810        0.2417459460        0.3194654355
 C         -0.0063338383        1.5128669148        0.1242420641
 O          0.4620164881        2.6251359078        0.1107427272
 N         -1.4124162107        1.2519478071       -0.0568833724
 C         -2.3654244306        2.3248516286       -0.2428628005
 C         -1.7217338581       -0.0350547599       -0.1166916462
 O         -2.7168081909       -0.6570445327       -0.3094127339
 N         -0.4163060344       -0.7729598635        0.1718054098
 C         -0.4910527699       -1.9645320970        1.0170827167
 H          3.1718299371        0.7980832059        1.4977199219
 H          3.8113038489        0.6979970704       -0.1592400970
 H          2.5181587845        1.8589548337        0.2429389572
 H          3.2523048513       -1.5719228916       -0.4912054129
 H         -1.8113196681        3.1979923501       -0.5849885043
 H         -3.1130053094        2.0297911810       -0.9760590613
 H         -2.8553943525        2.5599399585        0.7025387539
 H          0.2634322856       -2.0556491674        1.7875616663
 H         -0.7892235643       -2.4647339075       -1.1328237068
 H         -1.4965329753       -2.2479290937        1.3085049560
 H          1.5886455323       -3.1412802645       -0.9972948544
