25
 energy: -42.110047617107 gnorm: 0.002729957601 xtb: 6.6.1 (8d0f1dd)
C            2.71616594888397        1.29140769554230       -0.00295372726989
N            1.94653958618522        0.07865051413021        0.03871967570026
C            2.41184260689023       -1.16594969076622       -0.04235164525070
N            1.38353731096862       -2.02241488695307        0.07011685202490
C            0.22797910986637       -1.27947722244795        0.21919075784076
C            0.59015269047610        0.04361935109801        0.19611043965143
C           -0.21677482707165        1.32670022807543        0.40076955727518
O           -0.10060875724526        1.88645515484989        1.48786383290768
N           -0.89216374274752        1.64624460261961       -0.66590750928642
C           -1.65429193075050        2.83891514374329       -0.75975626574655
C           -1.68178396744104       -1.57165407457765        1.51117271025980
O           -1.98474559368554       -1.11199991426640        2.53205505466757
N           -1.03105878653901       -1.87747455159105        0.45025827686951
C           -1.54496886663390       -2.84189335915085       -0.52883168879629
H            2.63308761646765        1.81018931982405        0.95457675832312
H            3.75874900277476        1.06301330030364       -0.20917295021247
H            2.32219074842548        1.95070124099203       -0.77719803885405
H            3.43800829593770       -1.44356986954740       -0.17992851167743
H           -1.04820314241257        3.72218049566739       -0.53089401654399
H           -2.03023278253369        2.91348920600062       -1.78009973010766
H           -2.50054740823885        2.82614500029161       -0.06459872558768
H           -1.12539922590795       -3.83393100144501       -0.35468839795709
H           -1.28438931949600       -2.50057234633625       -1.52898716057508
H           -2.62770194465550       -2.90137130181178       -0.44526933394373
H            1.45504889258092       -3.02916449264135        0.04097540419258
