  72
        -99.34774117
 N         -1.6973442695        2.7679645821        2.4691662009
 C         -1.6554116615        2.1654510281        1.3746216122
 C         -2.8232633888        2.0351200106        0.4335210571
 C         -3.3034899443        0.5906712004        0.4106994364
 C         -4.3300060080        0.2418279288       -0.5028963787
 C         -4.8689670367       -1.0410383216       -0.5456790340
 O         -5.8786527168       -1.4251938340       -1.3633025062
 C         -6.5587977797       -0.4475446609       -2.1168858408
 C         -4.3708102071       -2.0419121128        0.2959692296
 O         -4.9361952151       -3.2511814002        0.2010576333
 C         -4.5353819480       -4.2890865947        1.0637956202
 C         -3.2577252653       -1.7649643256        1.2417049643
 C         -2.7938042518       -0.3509310881        1.2399662105
 C         -2.2983438592        2.4327042816       -0.9721066596
 C         -1.4671561070        1.3546185705       -1.6930659267
 C         -0.1255093514        1.1303726607       -1.0930689305
 N          0.3863103793       -0.0419233188       -0.7364521111
 C          1.7753074794       -0.0343856920       -0.2828901887
 C          2.7316962068       -0.2932158210       -1.4570395229
 C          4.1613134582       -0.2025183311       -0.9987703473
 C          4.8686646756        0.9825882705       -1.1163890996
 C          6.1826794680        1.0721865866       -0.6829322010
 C          6.8151157037       -0.0244726647       -0.1154704351
 O          8.0839318556       -0.0560356302        0.3323666123
 C          8.8848389850        1.0971499169        0.2127832434
 C          6.0941154502       -1.2436685393        0.0179581173
 O          6.7832861705       -2.2566822734        0.5803929465
 C          6.1664476729       -3.5132851923        0.7253350316
 C          4.7822114230       -1.3091506614       -0.4238859405
 C         -0.2116419275       -1.2248305049       -0.7813571025
 C         -4.0249699110        2.9427923972        0.8305631800
 C         -4.6508666106        2.5025654872        2.1522097143
 C         -3.6587499638        4.4226395854        0.9010369965
 H         -4.7175712994        0.9943994480       -1.1658742223
 H         -6.9578227447        0.3447849509       -1.4769729940
 H         -7.3828239736       -0.9727029832       -2.5958194903
 H         -5.9161413580       -0.0107719429       -2.8876373260
 H         -4.6941653932       -4.0242715916        2.1131532633
 H         -5.1628089879       -5.1413997076        0.8097653895
 H         -3.4846576875       -4.5557854834        0.9142670681
 H         -3.5593317356       -2.0401731279        2.2641123927
 H         -2.0328110055       -0.1101097380        1.9641170229
 H         -3.1503819793        2.6747784582       -1.6072683727
 H         -1.6950656554        3.3364172099       -0.8759518678
 H         -2.0384265779        0.4299940318       -1.7431140147
 H         -1.3226387599        1.7090678462       -2.7210887899
 H         -0.7436757161        1.6970164683        0.9678113362
 H          0.5355145692        1.9804943066       -1.0407150818
 H          1.9088519601       -0.8059055223        0.4774221130
 H          2.0083931484        0.9336540390        0.1651347268
 H          2.5458024141        0.4485987303       -2.2355725403
 H          2.5294753047       -1.2823475409       -1.8716393395
 H          4.4026769768        1.8479403190       -1.5625196079
 H          6.7100231222        2.0049155151       -0.7975947215
 H          8.4712905929        1.9336173778        0.7843113295
 H          9.0061974516        1.3933314042       -0.8334578235
 H          9.8540502852        0.8230577056        0.6249573986
 H          6.9162039959       -4.1556071532        1.1831736788
 H          5.2906466828       -3.4576264344        1.3799144936
 H          5.8747662567       -3.9311242599       -0.2432327024
 H          4.2307268002       -2.2324223907       -0.3391823234
 H         -1.2030011013       -1.3288478778       -1.1690493681
 H         -2.4046391365       -2.4238792404        1.0105635539
 H          0.3242741226       -2.0909215766       -0.4522685681
 H         -4.7813519414        2.8255117415        0.0464761723
 H         -3.9351302068        2.6208666357        2.9590583098
 H         -4.9695722563        1.4637160871        2.1113357916
 H         -5.5202618711        3.1186133342        2.3662244265
 H         -2.9112906273        4.5904345348        1.6699878300
 H         -3.2837216894        4.7918862374       -0.0496080684
 H         -4.5449561755        4.9976286990        1.1569337953
 H         -0.8401305238        2.8206595531        3.0109857478
