  25
        -42.24609290
 C          3.2160575055        1.1437506660       -0.0401565380
 N          2.2728065685        0.0574458675        0.0131595146
 C          2.5517581049       -1.2375591911        0.0299272842
 N          1.4039731035       -1.9545092421        0.0402760760
 C          0.3576091745       -1.0779263781        0.0311954448
 C          0.9068286654        0.1956833022        0.0212144182
 C          0.0804805108        1.3907470035       -0.0037203240
 O          0.4891672588        2.5264311306       -0.0480560251
 N         -1.2712135933        1.0645369774        0.0258647474
 C         -2.2289497855        2.1635660059       -0.0080334335
 C         -1.8426470841       -0.1946521656        0.0365264023
 O         -3.0279748303       -0.3644079269        0.0446277030
 N         -0.9642470332       -1.3083950803        0.0380359937
 C         -1.5633769115       -2.6097492446       -0.1421195745
 H          3.8516631319        1.1423313772        0.8453491019
 H          3.8460929754        1.0494816970       -0.9247792447
 H          2.6645667745        2.0825782403       -0.0867412902
 H          3.5364919159       -1.6622351961        0.0318201515
 H         -1.6725732734        3.0960042564       -0.0581483293
 H         -2.8747443638        2.0592801826       -0.8794239378
 H         -2.8502538923        2.1403699519        0.8863197157
 H         -0.9351525364       -3.3903499167        0.2832365037
 H         -1.7281352266       -2.8041515810       -1.2013116532
 H         -2.5310209972       -2.6229497534        0.3615844127
 H          1.3542288612       -2.9632125112        0.0616565225
