  25
        -42.01302714
 C          3.5312398658        0.9281458238        0.5265731489
 N          2.2668127721        0.3310672157        0.1546472505
 C          2.1917164730       -0.6288848474       -0.7541565536
 N          1.1441073113       -1.4416876562       -0.9977971395
 C          0.0951747858       -1.9325573871       -0.2885561414
 C          1.1543883527        0.8234598777        0.8295150643
 C          0.0075840295        1.1804760070        0.1467871620
 O          0.7164196741        2.2541263259        0.3072804949
 N         -1.1945550105        0.9155002229       -0.2791087282
 C         -2.0513077859        1.9876978885       -0.7847514095
 C         -1.8191703379       -0.3224180203       -0.0171180679
 O         -3.0146169604       -0.4108941967       -0.0261088073
 N         -1.0014604551       -1.4544121212        0.2478406494
 C         -1.7540498953       -2.4687869251        1.0046322646
 H          3.7598305906        0.6746380048        1.5626484252
 H          4.3279636466        0.5717254365       -0.1204721766
 H          3.4500847614        2.0127785016        0.4506866180
 H          3.1127381855       -0.8820415023       -1.2645112037
 H         -1.5077217628        2.9276571651       -0.7304819715
 H         -2.3250892326        1.7657682493       -1.8162123273
 H         -2.9589393625        2.0409762442       -0.1848766099
 H         -1.9624870961       -2.0844983860        2.0022853371
 H         -1.1546398682       -3.3720619562        1.0705573789
 H         -2.6992054691       -2.6832446397        0.5081309248
 H          1.4016376819       -2.1493943923       -1.6891650702
