25
 energy: -42.078280736690 gnorm: 0.003201616584 xtb: 6.6.1 (8d0f1dd)
C            3.29159450997339        1.25690897984133        0.06703001273964
N            2.36345629168369        0.15657489793111        0.03524772834528
C            2.66094016971347       -1.13105079533973        0.02375463904575
N            1.53677160907578       -1.86867176282084        0.00049776487951
C            0.46528624234365       -1.00485900572813       -0.00490252125320
C            0.99676713787399        0.28126751955793        0.01900518947108
C            0.16244984182669        1.46394793008556        0.00767789932746
O            0.55457689186422        2.60785625569545        0.02930616539576
N           -1.19129916801515        1.11991082403925       -0.03560754658185
C           -2.15412949641358        2.21923019493463       -0.05975237727452
C           -1.75825334842557       -0.12494139965945       -0.07000002401028
O           -2.93749832790675       -0.32160566130566       -0.12733884393596
N           -0.85780746661103       -1.27312998305967       -0.03337204401728
C           -1.40619490274500       -2.49929654690889       -0.03464900537031
H            3.86222130361933        1.24321213120599        0.99583374842641
H            3.98436447264114        1.19214595427133       -0.77143083689534
H            2.72975150563566        2.18880466879389        0.00613837107948
H            3.65503426827454       -1.53626881801389        0.03000035854412
H           -1.59751432092832        3.15174867275409       -0.02086502751129
H           -2.74704947415983        2.16998194842702       -0.97151260871728
H           -2.82244171628324        2.14051641181019        0.79605090849727
H           -0.78457686293526       -3.36991595555562       -0.01274671051518
H           -2.47516795346139       -2.56733520101484       -0.07573340856120
H           -3.87259324888937       -4.79880980166095        0.25449875181407
H            1.50174355634891       -2.87798291668020       -0.01595896502227
