25
 energy: 0.000000000000 xtb: 6.6.1 (8d0f1dd)
C            3.23720163006194        1.16630919979326        0.08434469647475
N            2.29877817382611        0.07527477071623        0.03981603040599
C            2.58028210190900       -1.21425402444508        0.03006176031096
N            1.43813958087363       -1.93419271955128        0.00098261760884
C            0.39035688448383       -1.05887472636071       -0.00790371836672
C            0.93510056364412        0.21347819449412        0.01709077491437
C            0.09450143893243        1.40504303904423       -0.00410947031874
O            0.49712751527797        2.54126714362870       -0.00342325688240
N           -1.25076640035757        1.06271879480407       -0.03085478223738
C           -2.21907211982101        2.15522099834493       -0.05001256985998
C           -1.81739487048744       -0.20012725993278       -0.04692818574614
O           -2.99983886758376       -0.37846417018721       -0.07008878229737
N           -0.92618586207120       -1.30210215599479       -0.03682761578324
C           -1.46982264913417       -2.64643102187190       -0.06029820460571
H            3.71247264356769        1.21471455160235        1.06488849150277
H            4.00791497605742        1.03430808813993       -0.67357694370751
H            2.69910007168542        2.09770118228144       -0.09130154882931
H            3.56654120610678       -1.63682992603973        0.04233140067262
H           -1.67107961066214        3.09322851271934       -0.02552706933167
H           -2.82428953597071        2.09428624779827       -0.95318082946668
H           -2.87644029173232        2.07745725625962        0.81450067533302
H           -1.17061996399332       -3.19584890659852        0.83242232437030
H           -1.14560257411436       -3.17511610292205       -0.95688275822323
H           -2.55549792440841       -2.55659984320617       -0.07459039797972
H            1.38130855184625       -2.94313852034425       -0.01389874181052
25
 energy: -4.315177777749 xtb: 6.6.1 (8d0f1dd)
C            3.25374605864763        1.17976563419426        0.07151978837952
N            2.31536829157627        0.08580494779992        0.03386128607118
C            2.59671589388108       -1.24562735496593        0.03961816632506
N            1.42143069597501       -1.95088719875363        0.01558173973017
C            0.39270322862699       -1.06475719301751        0.00105780273576
C            0.93339436333776        0.21220021330759        0.02684638807947
C            0.10463159074150        1.38629565851070        0.00497576789069
O            0.50402085386704        2.55056980400279        0.00652995705169
N           -1.25863643752854        1.04637737856975       -0.03129832490535
C           -2.21601224983361        2.14581689525476       -0.05925910810562
C           -1.82567413365215       -0.20305304976358       -0.05092926982130
O           -3.02262218571679       -0.38146154608634       -0.08232835817112
N           -0.93967932046264       -1.30613217094781       -0.03437571182228
C           -1.48565139168980       -2.64588060125613       -0.06062072067735
H            3.79163537134409        1.16738966115386        1.01992826791847
H            4.01479502452977        1.22573809715153       -0.74258992951943
H            2.67992220428661        2.10145329645239       -0.00679005848672
H            3.57045325466287       -1.67851933971215        0.07058236779283
H           -1.65391897412263        3.07693078590294       -0.03744341453158
H           -2.81906012225944        2.08973328170373       -0.96513092144156
H           -2.87733213896501        2.08172849020701        0.80424101340967
H           -1.19066325908678       -3.19908291414621        0.83297280957085
H           -1.15749232989208       -3.17947554241347       -0.95481582976255
H           -2.57084173474621       -2.55078915168423       -0.08004891962965
H            1.35098211441522       -2.95510947929219        0.00494910806640
25
 energy: 2.292297416286 xtb: 6.6.1 (8d0f1dd)
C            3.27208620717546        1.19633591164879        0.05283004834895
N            2.33992100418562        0.09355960029749        0.01812855241145
C            2.61107778159604       -1.28414093435767        0.05710850087536
N            1.39905001658266       -1.96654600487410        0.04087176225035
C            0.39580164467665       -1.07212153858708        0.01574142436881
C            0.93425711922608        0.20990074584861        0.03318538335602
C            0.12103115419227        1.35586357759493        0.01486766040616
O            0.50275644288087        2.54414745956998        0.02535717974165
N           -1.26853699352895        1.02630807095878       -0.03399095946522
C           -2.20935222507696        2.13591419727275       -0.07468182951077
C           -1.82958852713906       -0.20661874284135       -0.05877305316291
O           -3.03588368680548       -0.38632613730906       -0.10329756326789
N           -0.95487631833957       -1.30989289984883       -0.02969167145890
C           -1.50699856572085       -2.64434663423453       -0.06047282706110
H            3.93358128680068        1.06926528695170        0.93291277302732
H            3.99146759618131        1.52468865602590       -0.85675102741121
H            2.64458870172990        2.10686254365326        0.15070958105627
H            3.56708337327282       -1.73401248209797        0.12658778193363
H           -1.62957985283024        3.05780303927763       -0.05796512849631
H           -2.80977175377742        2.08259971374385       -0.98336433176844
H           -2.87687812539490        2.09037133726875        0.78634633799130
H           -1.22426047392159       -3.20488587025548        0.83457418250895
H           -1.17704798849208       -3.18651539163995       -0.95114932919547
H           -2.59192100292021       -2.54131592761520       -0.08898995211394
H            1.31420785338299       -2.96786897427914        0.03694040078321
25
 energy: 13.363689927683 xtb: 6.6.1 (8d0f1dd)
C            3.28307906039910        1.21498146327690        0.03401673193769
N            2.35660774602302        0.09872704818382        0.00057255137861
C            2.61468828229040       -1.30426480391240        0.06981193849131
N            1.38796558422995       -1.97467553218642        0.06443874239364
C            0.39618648010498       -1.07923985105048        0.02619973342042
C            0.93718758489952        0.20614458143092        0.03002009751645
C            0.12897125118906        1.33980244221582        0.02371531051688
O            0.49389550528754        2.53598230869034        0.05092284938073
N           -1.27544578287307        1.01540823663467       -0.03479773594929
C           -2.20489015134976        2.12986299746550       -0.08672999478194
C           -1.83213174993796       -0.21256011303118       -0.06683249249791
O           -3.04063994717114       -0.39447231527861       -0.12304919170251
N           -0.96255418437012       -1.31520262747327       -0.02570022631512
C           -1.52476094435328       -2.64563523891902       -0.06194838195665
H            4.06393594885461        0.98404530810999        0.82043218322909
H            3.94594773284698        1.75434848201981       -0.93001039141834
H            2.64414852086003        2.10734558747549        0.29467246593791
H            3.55888833548056       -1.77203440209759        0.18766931790774
H           -1.61241478381169        3.04379150814565       -0.07482787376279
H           -2.80193619406491        2.07424378762054       -0.99768699990880
H           -2.87630623133726        2.09728817012540        0.77203658631174
H           -1.25787135888473       -3.21273269490504        0.83442948838132
H           -1.19639916796014       -3.19297947216613       -0.95063589937019
H           -2.60958198609252       -2.53249252371257       -0.09957946940169
H            1.29564511767677       -2.97665374449008        0.06989455640894
25
 energy: 19.736324479783 xtb: 6.6.1 (8d0f1dd)
C            3.29158943998918        1.22641163731848        0.02090939330397
N            2.36533303248908        0.10093363337461       -0.01320902294461
C            2.61053476144213       -1.30877009261013        0.07632889672891
N            1.38583797272925       -1.97644399519996        0.08211734691828
C            0.39363248096805       -1.08464635109315        0.03062102367324
C            0.94073795720168        0.20120940081612        0.01834011763745
C            0.12976915911908        1.33532081464651        0.03203770418501
O            0.48172951067631        2.52571033917855        0.08016124441930
N           -1.27919032983145        1.01122542296079       -0.03188212226180
C           -2.20316322105776        2.12642313256867       -0.09157892131685
C           -1.83420677129956       -0.21930406486535       -0.07252049223950
O           -3.03959796170620       -0.40195207497830       -0.13814012312829
N           -0.96491103444352       -1.32086597624202       -0.02312388871882
C           -1.53816473656057       -2.64884887161331       -0.06542998221016
H            4.13688021034145        0.94231393848766        0.70421180291405
H            3.91220322288829        1.90888288987763       -0.94890554686268
H            2.68771138244407        2.08457162541511        0.37866353527742
H            3.54526388767073       -1.79113327993996        0.24667399729310
H           -1.60443937869470        3.03528884501472       -0.08359646421710
H           -2.79810150329094        2.06627863245708       -1.00340450098565
H           -2.87600513432874        2.10191538987584        0.76575774674841
H           -1.28640723127962       -3.22139054279808        0.83128232782859
H           -1.21341177466017       -3.19786795964080       -0.95375011479241
H           -2.62276782090429       -2.52557970885059       -0.11002275991912
H            1.29135854803414       -2.98065418198804        0.09549269881653
25
 energy: 21.492641370258 xtb: 6.6.1 (8d0f1dd)
C            3.29755565606452        1.22665863277893        0.01549097534065
N            2.36483697446978        0.10042027649924       -0.01790052071430
C            2.60219144596032       -1.29726393199575        0.06862838380738
N            1.39198953848691       -1.97143626748555        0.09458847027795
C            0.38868336107652       -1.08597244627081        0.03215800082015
C            0.94309809621800        0.19703276587962        0.00627801260468
C            0.12667103205052        1.34128461084184        0.03745812492439
O            0.47359941689588        2.51708726274767        0.10048082276489
N           -1.27739385751768        1.01237817596636       -0.02998119381950
C           -2.20341051570861        2.12513030878826       -0.09823183052771
C           -1.83567951216254       -0.22431319566429       -0.07542554082204
O           -3.03581155333247       -0.40382381573103       -0.15036213495088
N           -0.96269820195733       -1.32477067940478       -0.01958740347026
C           -1.54345209046345       -2.65248206946728       -0.06518451467627
H            4.18110958732491        0.89483705617210        0.58268957840269
H            3.86382614148138        2.00176613931302       -0.95066524890321
H            2.74049478466912        2.04463624004764        0.47706272763798
H            3.52769839781152       -1.78377474421794        0.28887462066470
H           -1.60770453233913        3.03453273528825       -0.09433151913392
H           -2.79738274000570        2.05782294085272       -1.00994662255541
H           -2.87690512160031        2.10615728548980        0.75815044676113
H           -1.30174088824003       -3.22498813926684        0.83246714601239
H           -1.22015991991500       -3.20148049543309       -0.95271379379384
H           -2.62745369556323       -2.52275926974474       -0.11436512708367
H            1.30025286423201       -2.97765077381127        0.11140203657927
25
 energy: 20.110227362982 xtb: 6.6.1 (8d0f1dd)
C            3.29855597518885        1.22223828977340        0.01709707483163
N            2.35548514106626        0.10376629811614       -0.01289190886841
C            2.59551968007421       -1.27751733963993        0.05604002651981
N            1.39728300751234       -1.96148476769443        0.10091849933410
C            0.38340102019515       -1.08158938506409        0.03316795069288
C            0.93927150771024        0.19904666326471        0.00085868607949
C            0.12070875699745        1.34913109918547        0.03562422789124
O            0.46839499725787        2.51789385876388        0.11183839057473
N           -1.27530096266023        1.01321300847496       -0.03383456683949
C           -2.20678052730435        2.12337896544803       -0.10634685716493
C           -1.83747560517848       -0.22639579112642       -0.07840981500242
O           -3.03446211180860       -0.40210733448466       -0.15902327825655
N           -0.96112607578231       -1.32526247664805       -0.01688526967133
C           -1.54118633747195       -2.65475610704813       -0.06156723936659
H            4.22839462845014        0.83113392089783        0.48020633671521
H            3.80289932543985        2.02896697947208       -0.94833377465214
H            2.79227951379821        2.01465961492271        0.57631123418368
H            3.51538223612021       -1.75738633112741        0.31400092993132
H           -1.61750290462047        3.03701163241648       -0.10575983332774
H           -2.80054076862610        2.05015413743593       -1.01763002821634
H           -2.88033068667280        2.10645153310536        0.75001580512550
H           -1.30125584004207       -3.22362189181532        0.83775746594063
H           -1.21492343597935       -3.20388288452960       -0.94729003669452
H           -2.62464889294007       -2.52576844208834       -0.11351989310968
H            1.31017302721186       -2.96824464783847        0.11468976949717
25
 energy: 15.399907636908 xtb: 6.6.1 (8d0f1dd)
C            3.29985923327389        1.21603717525149        0.01844054841195
N            2.34648572865489        0.10677088740416       -0.01113541215156
C            2.59322970919116       -1.25923405413907        0.04299981111984
N            1.40208317790474       -1.95149185345636        0.10076036842242
C            0.38129318701741       -1.07515301727988        0.03138513992822
C            0.93631922707040        0.20385569528286       -0.00515984088267
C            0.11491830605584        1.35583458478765        0.03220179469145
O            0.46617259043950        2.52144648096718        0.11865612985239
N           -1.27230022260485        1.01433339838342       -0.03752675999395
C           -2.21000074015413        2.12213443984626       -0.10686838604439
C           -1.83717704795699       -0.22629147157532       -0.07944549125623
O           -3.03170941304801       -0.39971145100186       -0.16110844660315
N           -0.95842610471847       -1.32345422441670       -0.01615288245906
C           -1.53598354480276       -2.65484966497566       -0.05942414112797
H            4.20902854001256        0.81560823195900        0.41413342857699
H            3.76550738289463        1.99653463013806       -0.91320212937598
H            2.84835545665477        1.98004689709055        0.60779474798675
H            3.51029032195712       -1.72980730926713        0.33071631409126
H           -1.62579141138157        3.03969522166652       -0.10681282677517
H           -2.80507842713873        2.04674683130320       -1.01688778460692
H           -2.88182122538301        2.10237378522018        0.75076988606495
H           -1.29392085406668       -3.22179951665103        0.84036544745825
H           -1.20761037287309       -3.20338381427821       -0.94454959690545
H           -2.61928806094349       -2.52873790072906       -0.11178915154588
H            1.31777923188070       -2.95847537935813        0.10887312927115
25
 energy: 11.653643926460 xtb: 6.6.1 (8d0f1dd)
C            3.30169806626455        1.21812660636439        0.01582127199928
N            2.34049630389504        0.11542297013399       -0.01351365188499
C            2.59610456337792       -1.25109520385761        0.03207898194433
N            1.40236001674727       -1.94626065587364        0.10203832021418
C            0.38196397006732       -1.07019074647584        0.03334355268684
C            0.93161720226682        0.21068914129041       -0.00324151355154
C            0.10965699060666        1.35901335905723        0.03165061081108
O            0.46335599872410        2.52872453754448        0.11651669611135
N           -1.27513952862713        1.01471763020939       -0.04251945575215
C           -2.21506849418322        2.12137725734759       -0.11243394465915
C           -1.83813340035477       -0.22535614381877       -0.08082168037784
O           -3.03386764956513       -0.40064752813251       -0.16411709028862
N           -0.95841027093728       -1.32165979114098       -0.01429745924699
C           -1.53153775259850       -2.65432129650977       -0.05628737849682
H            4.23603103937619        0.77078775562689        0.36424321917960
H            3.72254323707599        1.97984338519154       -0.91093835646030
H            2.87787973590607        1.97775019573600        0.67441426725010
H            3.51125625732200       -1.71457252367171        0.34210481976773
H           -1.63174527556209        3.04008957914286       -0.11212198771922
H           -2.80925641519196        2.04453333165051       -1.02281640479683
H           -2.88643672642100        2.09980491534232        0.74556839393210
H           -1.28720116473383       -3.21977280016081        0.84449546996054
H           -1.19997346369189       -3.20360692079816       -0.94027400206785
H           -2.61502821178108       -2.53162387843438       -0.10976763908958
H            1.31904963995374       -2.95274457359127        0.10790885668201
25
 energy: 9.438194772783 xtb: 6.6.1 (8d0f1dd)
C            3.30369065723384        1.22345724708375        0.01692260326500
N            2.33986360548493        0.12055954408334       -0.01539772045545
C            2.60141457856179       -1.25393968908818        0.02858255063000
N            1.40138774843716       -1.94670349228818        0.10080988323591
C            0.38516523888360       -1.06896883745039        0.03535808296109
C            0.93029200756962        0.21404480253057        0.00213258167744
C            0.10798452760133        1.35834791736479        0.03359755087794
O            0.46300307532201        2.53183220549251        0.10901452425837
N           -1.27838799968274        1.01544222793627       -0.04333481466334
C           -2.21736304546600        2.12224628288831       -0.11249422251773
C           -1.83769858370259       -0.22394432941378       -0.08032934750328
O           -3.03522789622073       -0.40284567354635       -0.16258519617221
N           -0.95816826024524       -1.32033583018206       -0.01377614920981
C           -1.52918611437326       -2.65285690175769       -0.05676489633019
H            4.24038704605948        0.76923522997541        0.36603841116097
H            3.70578960501607        1.96123324377404       -0.90407563332326
H            2.88186589088507        1.97587382451446        0.67109250756102
H            3.51530970167413       -1.71362000611847        0.34341733392878
H           -1.63200429072023        3.03964234496628       -0.11049940459274
H           -2.81064233796264        2.04673118215260       -1.02349300273040
H           -2.88888764446163        2.09884959795106        0.74536782941567
H           -1.28375388456992       -3.21936150833918        0.84368644632582
H           -1.19683957440029       -3.20186239520185       -0.94104905918876
H           -2.61298654485404       -2.53140877942707       -0.11020301625642
H            1.31720716186611       -2.95261960572807        0.10501605379284
25
 energy: 7.898837590622 xtb: 6.6.1 (8d0f1dd)
C            3.30873197805881        1.22727966865569        0.01341653461996
N            2.34122857607132        0.12238728022050       -0.02672521796037
C            2.60844896343173       -1.26232099543486        0.01736636009666
N            1.40029951274852       -1.95018629820118        0.09674778586870
C            0.38963784056791       -1.06980916026284        0.03622378180205
C            0.93120083547986        0.21483417448722        0.00489189435890
C            0.10841452299050        1.35637142461597        0.03289592348846
O            0.46546069186390        2.53305729357650        0.09405234254475
N           -1.28064477385755        1.01683995956582       -0.04380815647171
C           -2.21786102065976        2.12414651326218       -0.11241305874864
C           -1.83592407401035       -0.22201957267796       -0.07875950997885
O           -3.03533686840686       -0.40496405308480       -0.15710667816600
N           -0.95724038064821       -1.31908718286926       -0.01240193976719
C           -1.52736800823013       -2.65083244312241       -0.05554768330197
H            4.22679208417972        0.77569840116824        0.37204274192148
H            3.69025334088928        1.95783487512879       -0.89562637376913
H            2.88027648826542        1.97081580734490        0.68427587956728
H            3.51974777087702       -1.71723766867130        0.34740750567698
H           -1.63013410086979        3.03982500481725       -0.10958638872993
H           -2.81061078431805        2.04996441135629       -1.02382204375598
H           -2.88987802939974        2.09993643642668        0.74514047437397
H           -1.28092413919646       -3.21837222052391        0.84439993390089
H           -1.19547808392493       -3.19986270503725       -0.94032321972316
H           -2.61145830390511       -2.52975578871368       -0.10817112148507
H            1.31458062993874       -2.95551455985449        0.10246412978519
25
 energy: 8.215123878560 xtb: 6.6.1 (8d0f1dd)
C            3.30800234782675        1.22794933603647        0.01505634095593
N            2.34050678189409        0.12090566318908       -0.02783901562365
C            2.60816364310771       -1.26405813300439        0.01354322033988
N            1.40029337711803       -1.95120080446105        0.09557750638000
C            0.38926239488815       -1.07104795987278        0.03646981388368
C            0.93152719396608        0.21295845717440        0.00535761865422
C            0.10888373466554        1.35596544813217        0.03100308996408
O            0.46597313375246        2.53154129466385        0.09124658240064
N           -1.28029997620494        1.01710190710879       -0.04311632820072
C           -2.21701670817621        2.12452016097669       -0.11221663000623
C           -1.83573451437961       -0.22222122140471       -0.07826795717576
O           -3.03482553355556       -0.40502655540609       -0.15564349636247
N           -0.95718605488275       -1.31935588010448       -0.01205089747889
C           -1.52792329566842       -2.65095946781444       -0.05560648595492
H            4.23396188723033        0.77732897451900        0.37168511764861
H            3.68428789221421        1.96968442564104       -0.89081837184732
H            2.88001704664688        1.96472115690885        0.68210517965793
H            3.51784603728810       -1.71689374274486        0.35183082837496
H           -1.62930123481747        3.04010477207882       -0.10983772523600
H           -2.80975395437583        2.05037982729927       -1.02369921979020
H           -2.88945587898778        2.10103631273897        0.74500641422834
H           -1.28187171543843       -3.21856241521950        0.84414989958229
H           -1.19635513876263       -3.19965003170847       -0.94056918541049
H           -2.61196236537625       -2.52952600806758       -0.10808417899499
H            1.31517556796335       -2.95666691448696        0.10175177615834
25
 energy: 8.054698823456 xtb: 6.6.1 (8d0f1dd)
C            3.30722465916476        1.22767678668681        0.01357733636847
N            2.33943531464155        0.11896547191165       -0.03113991661798
C            2.60774501304522       -1.26467302609883        0.00588481607072
N            1.40087143618772       -1.95157391955968        0.09453991073583
C            0.38857226717834       -1.07183244261393        0.03722686068031
C            0.93230677587602        0.21108824440204        0.00558312762613
C            0.10938769619270        1.35619809334169        0.02858883809373
O            0.46688175521339        2.53021526935954        0.08889517999954
N           -1.27898210617936        1.01740663177320       -0.04218124060103
C           -2.21586475395313        2.12459276807307       -0.11232408906277
C           -1.83551684025968       -0.22251438990568       -0.07749871191339
O           -3.03411076369174       -0.40445708313344       -0.15489651072921
N           -0.95676869746375       -1.31943037470222       -0.01103963794909
C           -1.52824764259035       -2.65114156794210       -0.05512329987513
H            4.23764773216127        0.77941873377673        0.36772135570005
H            3.67745495382869        1.97703849667157       -0.88326267484875
H            2.88073329652979        1.95818206818722        0.68772344392001
H            3.51450816089591       -1.71367914961730        0.35651398241246
H           -1.62879918697671        3.04054487073907       -0.11046279996738
H           -2.80855600324141        2.05019356428608       -1.02392954718366
H           -2.88869056404587        2.10169695229850        0.74456115340827
H           -1.28268456785778       -3.21867670956327        0.84453507689411
H           -1.19677772945561       -3.19944392469820       -0.94018928506484
H           -2.61223026468447       -2.52950985436649       -0.10767291393632
H            1.31667472742030       -2.95725690713391        0.10140344198716
25
 energy: 8.007971201924 xtb: 6.6.1 (8d0f1dd)
C            3.30693048906850        1.22706247907155        0.01105278857768
N            2.33992416529493        0.11712227255615       -0.03566694693085
C            2.60822237791366       -1.26629729731562       -0.00147867368486
N            1.40107717676788       -1.95214802234003        0.09345239693550
C            0.38847197012041       -1.07221125021703        0.03797675777857
C            0.93373568850794        0.20991694768536        0.00568939523012
C            0.11045832324027        1.35600948178466        0.02748686584170
O            0.46794800077214        2.52948718860838        0.08790542681399
N           -1.27764015349879        1.01742755876142       -0.04103720424336
C           -2.21460788743771        2.12450489746949       -0.11219836622392
C           -1.83514118672740       -0.22261692898279       -0.07702947549964
O           -3.03357865802401       -0.40370030004652       -0.15504888008736
N           -0.95636163853659       -1.31927246708882       -0.01005553301430
C           -1.52856305377442       -2.65103492289799       -0.05456702465807
H            4.23693901537002        0.78301871066988        0.37096307629723
H            3.67399145165872        1.98256898174161       -0.88051160561074
H            2.87734335895003        1.95388622731066        0.68962792671717
H            3.51215889566949       -1.71246040658081        0.36130590179600
H           -1.62799806956674        3.04072926672416       -0.11048301282682
H           -2.80713424576393        2.04996227135510       -1.02399248333487
H           -2.88781834457648        2.10192129945877        0.74435957618196
H           -1.28348152286803       -3.21876041543026        0.84498935468872
H           -1.19720174764454       -3.19913391682498       -0.93972289319311
H           -2.61251090950241       -2.52904796463251       -0.10729746710655
H            1.31705117252281       -2.95790508866772        0.10131399570310
25
 energy: 7.714877661686 xtb: 6.6.1 (8d0f1dd)
C            3.30660408393007        1.22672256430095        0.00911413255144
N            2.34039883061350        0.11662581060996       -0.03810027715496
C            2.60872429200761       -1.26654261975544       -0.00555987663194
N            1.40117737790912       -1.95193315254993        0.09309091706130
C            0.38856030311629       -1.07177881785770        0.03849830164193
C            0.93446503419388        0.21009474514489        0.00564149950468
C            0.11079230563226        1.35608240091255        0.02782179910386
O            0.46812669901376        2.52961762750975        0.08895341020588
N           -1.27694657004279        1.01730209418367       -0.04047417743594
C           -2.21421361085011        2.12428421271368       -0.11204139844282
C           -1.83491983529538       -0.22267824431927       -0.07709620846840
O           -3.03328672958192       -0.40322305450723       -0.15604713087451
N           -0.95604916929743       -1.31907228517328       -0.00947041539073
C           -1.52840779428479       -2.65093362232855       -0.05424262883713
H            4.23576509163257        0.78462281563135        0.37428310464841
H            3.67304144860253        1.97993940918435       -0.88009588774371
H            2.87553275252661        1.95329138533004        0.68871780834176
H            3.51071376701894       -1.71103843810885        0.36425114253842
H           -1.62794642083792        3.04076481143347       -0.11021074743520
H           -2.80655794409805        2.04949983021228       -1.02393717941902
H           -2.88756139328593        2.10154747663359        0.74440241649894
H           -1.28351041967999       -3.21879382614047        0.84527497873799
H           -1.19692832312030       -3.19893569625679       -0.93941387928318
H           -2.61232641179219       -2.52878069570510       -0.10724613747132
H            1.31696730390546       -2.95765612892576        0.10092032990151
25
 energy: 7.634411858926 xtb: 6.6.1 (8d0f1dd)
C            3.30624274487747        1.22604944652022        0.00748071186749
N            2.34152748252711        0.11608322396491       -0.03983021827830
C            2.60937991166805       -1.26702449586689       -0.00837531806581
N            1.40104234979930       -1.95175329460674        0.09303000176358
C            0.38883607337488       -1.07115803492235        0.03872216042530
C            0.93523350426566        0.21062117798324        0.00489887885055
C            0.11122352520271        1.35596647446741        0.02904379036045
O            0.46798658030803        2.52975917899283        0.09204813746225
N           -1.27634111335408        1.01702311719508       -0.04011261722899
C           -2.21390606147161        2.12403367394062       -0.11177015700685
C           -1.83458648300111       -0.22275714050665       -0.07747779570862
O           -3.03290413073301       -0.40274843980883       -0.15781686784759
N           -0.95575698773526       -1.31895116518076       -0.00903669166579
C           -1.52826610683804       -2.65081696423991       -0.05398922175711
H            4.23402801999595        0.78638820275097        0.38015589508367
H            3.67485883946093        1.97722924743451       -0.88340400045804
H            2.87220852756290        1.95422453366616        0.68477006927640
H            3.50904448667347       -1.71044103557498        0.36834584406276
H           -1.62789447273099        3.04071039847534       -0.10982487617591
H           -2.80617485767960        2.04886813488187       -1.02362469074411
H           -2.88722233751356        2.10109030719097        0.74471048884353
H           -1.28353255206249       -3.21884185623468        0.84547702568939
H           -1.19677804102428       -3.19883783676042       -0.93917616494210
H           -2.61213014383730       -2.52832579978113       -0.10722054669104
H            1.31609591020070       -2.95736245180867        0.10001005903217
25
 energy: 7.546936820638 xtb: 6.6.1 (8d0f1dd)
C            3.30618249571527        1.22628631448281        0.00779623574415
N            2.34129045777072        0.11636848205371       -0.03936389971433
C            2.60960594212679       -1.26685257516328       -0.00851867059990
N            1.40103827443266       -1.95164727834014        0.09308971569118
C            0.38897838572435       -1.07104941626011        0.03834374612008
C            0.93492262274815        0.21083333046033        0.00438313385828
C            0.11089889490098        1.35606111456097        0.02922815207927
O            0.46768643635222        2.52980738347507        0.09253987557562
N           -1.27657246837859        1.01711012935819       -0.04048717443947
C           -2.21419750293335        2.12411502094273       -0.11172185943694
C           -1.83452058235404       -0.22274529027836       -0.07757918616463
O           -3.03283433260512       -0.40297561312875       -0.15772637475951
N           -0.95568199230624       -1.31898842484114       -0.00914878529263
C           -1.52805496043375       -2.65081064677597       -0.05402526310653
H            4.23446343302516        0.78559111880286        0.37864860053437
H            3.67481209751962        1.97566067647829       -0.88343085620934
H            2.87338341867840        1.95472974668131        0.68475121692996
H            3.50872035669463       -1.70991557799114        0.37033826575968
H           -1.62810960124799        3.04072309717635       -0.10986853463531
H           -2.80662980801516        2.04889459544859       -1.02342299482036
H           -2.88729851214156        2.10108407789309        0.74493114814709
H           -1.28319138083285       -3.21880086180528        0.84541615387541
H           -1.19662759660093       -3.19884202358557       -0.93923455287535
H           -2.61192269111458       -2.52838343202342       -0.10711714595151
H            1.31587328121099       -2.95722534544903        0.09921294983801
25
 energy: 7.641748988665 xtb: 6.6.1 (8d0f1dd)
C            3.30611768757591        1.22638284412495        0.00833641841348
N            2.34110348999096        0.11630561655477       -0.03853169150048
C            2.60999820320668       -1.26717317864881       -0.00916546630359
N            1.40103466164787       -1.95185368145937        0.09342070629675
C            0.38912652885264       -1.07124454462185        0.03796936721762
C            0.93474154173758        0.21061091902180        0.00388926197093
C            0.11077086651782        1.35602324912918        0.02926882941071
O            0.46759556078772        2.52950522459181        0.09296081311133
N           -1.27666523928465        1.01723784108718       -0.04092000589632
C           -2.21428776384422        2.12424434669783       -0.11173022583358
C           -1.83440701941500       -0.22275758804386       -0.07754447041875
O           -3.03273800943781       -0.40319318279055       -0.15737932415704
N           -0.95558320260027       -1.31908091455320       -0.00920025808046
C           -1.52800181323589       -2.65081444357591       -0.05408877783585
H            4.23486374522139        0.78515435225073        0.37698878824503
H            3.67545001711723        1.97655398196287       -0.88401921914801
H            2.87384281457705        1.95488156792434        0.68484042969114
H            3.50765462112434       -1.70930732871452        0.37301588236617
H           -1.62813111658946        3.04076298202444       -0.11007957190527
H           -2.80703725243925        2.04899566606200       -1.02321070616069
H           -2.88709328602864        2.10126687133947        0.74515747265393
H           -1.28309154633447       -3.21881437178617        0.84531941445180
H           -1.19672235867459       -3.19883576781689       -0.93934552590925
H           -2.61189465852696       -2.52840425216244       -0.10705172116410
H            1.31556819598983       -2.95741760642567        0.09813347663177
