  72
        -99.39169148
 N         -0.8965585441        1.2832885585        1.5512363815
 C         -1.1519335008        1.1099477410        0.3388426227
 C         -2.5019482368        1.3539878116       -0.2903721144
 C         -3.4782907797        0.2437055953        0.0894777355
 C         -4.6550567578        0.0951846306       -0.6454919906
 C         -5.5851878472       -0.8842956781       -0.3365057322
 O         -6.7449812451       -1.0906948352       -0.9905192787
 C         -7.0948074702       -0.2518940493       -2.0659552608
 C         -5.3424215220       -1.7620236834        0.7553691081
 O         -6.2892873416       -2.6931539479        0.9738883277
 C         -6.1505200216       -3.5698418780        2.0679228839
 C         -4.1880688903       -1.5852890764        1.5019546708
 C         -3.2741197066       -0.5937432012        1.1758779336
 C         -2.1878424048        1.2968585888       -1.8024451291
 C         -1.0635661942        0.2736151927       -1.9281519160
 C         -0.1634632346        0.6228903134       -0.7422720418
 N          0.6819300003       -0.4375215022       -0.2579924858
 C          1.9641643909       -0.2695422109        0.0344388907
 C          2.7636674460        0.9511287552       -0.2361066928
 C          4.2360830496        0.6930640447       -0.0344182408
 C          4.9710319490        1.4095795997        0.8929445355
 C          6.3268313166        1.1675396769        1.0620368343
 C          6.9718302159        0.1989445536        0.3074237816
 O          8.2755039523       -0.1214021059        0.3857686044
 C          9.1015325002        0.5662749306        1.2977093318
 C          6.2228421435       -0.5425168207       -0.6492706993
 O          6.9284312533       -1.4592233146       -1.3407762809
 C          6.2844993586       -2.2240787762       -2.3309275153
 C          4.8710572236       -0.2824586835       -0.8025035514
 C          0.0511243649       -1.7126215739        0.0005281125
 C         -3.1146457211        2.7240190188        0.1283664142
 C         -3.7060154174        2.6752706979        1.5343764658
 C         -2.1016465256        3.8653721440        0.0579195294
 H         -4.8678809288        0.7749690296       -1.4538215155
 H         -7.1981642996        0.7894616490       -1.7457374684
 H         -8.0577493673       -0.6164538801       -2.4182374428
 H         -6.3656093252       -0.3155872906       -2.8798354829
 H         -6.1321449473       -3.0253536584        3.0167260407
 H         -7.0267546975       -4.2144887032        2.0386064535
 H         -5.2474435134       -4.1817926992        1.9798597665
 H         -3.9923109948       -2.2119952324        2.3567387751
 H         -2.4191374486       -0.4546316191        1.8175845094
 H         -3.0478359569        1.0144710454       -2.4016901850
 H         -1.8431654146        2.2709608689       -2.1486493627
 H         -1.4735086967       -0.7302574314       -1.8259022799
 H         -0.5384248887        0.3418446425       -2.8798568170
 H          0.5869948438       -1.1267451208        3.2167825734
 H          0.4610902522        1.4816996738       -1.0056399026
 H          2.4695599087       -1.1093811846        0.4844182276
 H          1.1935898438       -1.0525632033        3.6991548946
 H          2.4513479992        1.7738087321        0.4187032598
 H          2.6000467780        1.2880955926       -1.2679384151
 H          4.4958050296        2.1704639694        1.4929817238
 H          6.8743819164        1.7452396388        1.7882340445
 H          8.7601099192        0.4315711745        2.3282357330
 H          9.1515290405        1.6340569052        1.0649714893
 H         10.0900650119        0.1255438451        1.1845090987
 H          7.0550125145       -2.8695020644       -2.7480486207
 H          5.4870046814       -2.8423902788       -1.9063098946
 H          5.8748782181       -1.5910681134       -3.1242647797
 H          4.2940599780       -0.8314399690       -1.5306007867
 H          0.0441595084       -2.3259005633       -0.9038383881
 H         -0.9770456208       -1.5609875669        0.3301617115
 H          0.5958278276       -2.2518302405        0.7737882357
 H         -3.9193856205        2.9279230277       -0.5862464269
 H         -2.9448483975        2.3600142513        2.2420612974
 H         -4.5441450905        1.9862261054        1.5904555556
 H         -4.0571318191        3.6643012535        1.8165612879
 H         -1.3698660928        3.7680481513        0.8555160870
 H         -1.5795037432        3.9016091183       -0.8952880577
 H         -2.6183676118        4.8126459223        0.1872132614
 H          0.0487192551        1.0867979237        1.8692718102
