72
 energy: -99.644312123901 xtb: 6.6.1 (8d0f1dd)
N           -1.92359870606161        3.06590331048972        2.43009897129626
C           -1.86157970412604        2.28190514917808        1.44653601137679
C           -2.93316198683973        2.13759738289793        0.39194196572085
C           -3.49695968635295        0.72548987893054        0.43988733473655
C           -4.37924915641171        0.27782678458430       -0.54762880651840
C           -4.91529964579809       -0.99819564041797       -0.52555864752384
O           -5.76819053970294       -1.51546745171589       -1.45582906422157
C           -6.25347030483141       -0.66123613872012       -2.45619332216212
C           -4.56018832811216       -1.88190398529058        0.51937679913287
O           -5.13011035209277       -3.12492917777448        0.45823477004621
C           -4.85482809185780       -4.02797685246406        1.49791451858825
C           -3.69194052666382       -1.43737659993558        1.50108965730359
C           -3.17320797692150       -0.14760610723025        1.46121451861298
C           -2.26051735488944        2.37721149356141       -0.98220928847381
C           -1.39064544719361        1.22959964789401       -1.51215446341152
C           -0.14801233544390        0.94117173624961       -0.70711974707277
N            0.36494445548504       -0.27845704556393       -0.42338750095846
C            1.60718536591199       -0.52243757979432        0.01317807721319
C            3.69811624818727       -0.66065693573408       -1.80192547080885
C            4.94215882079477       -0.52529352087411       -1.22913664803657
C            5.68550427767995        0.64279222012936       -1.41982150394960
C            6.92617057863736        0.76622634744377       -0.85879860079567
C            7.45756568976060       -0.25146670728237       -0.07956104424825
O            8.67022696248581       -0.22185788142633        0.54280788993919
C            9.44689718711060        0.93687329924316        0.42258586802879
C            6.72068774305981       -1.44515588337057        0.10004116180758
O            7.34738893475939       -2.40685940851013        0.84136599514379
C            6.66561072692930       -3.61181614777108        1.06237830407459
C            5.48871255780523       -1.57227685054129       -0.46696142509166
C           -0.47278541869417       -1.45199240427433       -0.60484781200484
C           -4.10696588925055        3.13378281859170        0.57461346071431
C           -4.82727406374042        2.87991943120151        1.89639096488755
C           -3.65955558120763        4.59113594448554        0.50739831304259
H           -4.64396952391631        0.94464480149413       -1.35217083096745
H           -6.76049929746267        0.21228444368062       -2.03299906749287
H           -6.96771897205079       -1.25207022610594       -3.02803085949141
H           -5.45061714902922       -0.32211965824340       -3.11785257593525
H           -5.18833362824654       -3.63662978295989        2.46513163411018
H           -5.41705051525303       -4.93120557998127        1.26197281734809
H           -3.78811304868762       -4.27094763383730        1.56302031934305
H           -3.41454758924277       -2.08151803203913        2.32090271015333
H           -2.52186228962265        0.17855141176952        2.25638145924436
H           -3.04673590773477        2.56389574820043       -1.72423503072017
H           -1.64403457404795        3.27400655690895       -0.92285314807420
H           -1.99238735576057        0.32792846890499       -1.55479723173054
H           -1.18201297954458        1.51928353082235       -2.56504481179809
H           -0.97681491200246        1.64848929825072        1.18211445975657
H            0.54851295935655        1.76681743555605       -0.60185902270235
H            1.83330511510491       -1.46300037103679        0.47854884747708
H            2.13964011961548        0.32115427880853        0.41987733145796
H            3.41456337779023        0.08328977496034       -2.51521069576432
H            3.23599456458075       -1.62160758024770       -1.89878245848290
H            5.26896902797422        1.43926372700257       -2.01459777525973
H            7.48712946390932        1.66667605306923       -1.03666168893534
H            8.95372337918841        1.81549983749458        0.85128003715076
H            9.71561896226280        1.14588663434149       -0.61912057419899
H           10.35235543720980        0.73497711318642        0.98673934918725
H            7.32670044198958       -4.20477844025634        1.69433758776871
H            5.71405513886403       -3.45305775980235        1.57853780304001
H            6.47881961416283       -4.14905223483862        0.12502621099904
H            4.90836350751491       -2.47315223920838       -0.35748956452602
H           -0.61946469947529       -1.66417894119058       -1.66742928308170
H           -1.44816856091139       -1.25803673471630       -0.13354602670801
H            0.04153508057028       -2.31000974757888       -0.14996740391064
H           -4.81412607421645        2.96370029548500       -0.24281689933993
H           -4.14531944139225        3.07141387310902        2.71152244502010
H           -5.17742198903945        1.85215923685814        1.95763720196623
H           -5.68065035418556        3.54740236374611        2.00213226345962
H           -2.92945998207889        4.77387630742346        1.28291428551847
H           -3.23100283021496        4.83193366161196       -0.46155067566080
H           -4.51141481475840        5.24945489342594        0.67652880054932
H           -1.09073756633345        3.03986573358839        3.00860681230456
