25
 energy: -42.078295991141 gnorm: 0.005665765818 xtb: 6.6.1 (8d0f1dd)
C            2.66253679691710        0.84889668107455       -1.07293615730342
N            1.99475336278903       -0.12153783204131       -0.23401196780854
C            2.69671620644000       -1.05609080667398        0.46591057015187
N            2.27956171404674       -1.91047481651911        1.28941911142241
C           -0.17787971888272       -1.10263045118335       -0.18651928202908
C            0.58728189825432        0.00671766078954       -0.08587964688329
C            0.10321297389762        1.29791104841639        0.25244653228649
O            0.68473085057375        2.29102616509935        0.56096697578825
N           -1.43722409492098        1.42630713164731        0.18317268482196
C           -1.95850972214358        2.59772142288208        0.89737765541349
C           -2.11199645901198        0.75871164275252       -0.63132959014846
O           -2.60559776250673        0.05440648126959       -1.40146211484533
N           -0.78427599057773       -2.07668566375378       -0.46088771251965
C           -1.40720500685020       -3.29328384767879       -0.20791391386593
H            2.78361862136048        1.80240548432892       -0.55204364669781
H            3.64387906390956        0.47240675200285       -1.35116380916348
H            2.07811629850297        1.01781894307031       -1.97820393181471
H            3.76207694200018       -1.05249738894680        0.25839647894511
H           -1.40164541707086        2.69547783328354        1.82732819959078
H           -1.80363551527450        3.49662257424728        0.30037076123101
H           -3.01715760514506        2.46451154670623        1.10232297914842
H           -1.45721541887569       -3.52156565163602        0.85925142299002
H           -0.84466302783250       -4.07450425250926       -0.72357291952055
H           -2.41118786492404       -3.26034020292035       -0.63546651110833
H            1.30214038943328       -1.94309191210358        1.55559944981811
