25
 energy: -42.094379068469 gnorm: 0.003932120973 xtb: 6.6.1 (8d0f1dd)
C            3.15958288806979        1.40950738714060        0.01114370816948
N            2.34065443904553        0.27791411746309       -0.02851600246025
C            2.57326035295889       -2.29075779925321       -0.01707277309344
N            1.29447254662435       -2.23244761375017       -0.00201347443546
C            0.46299356725161       -1.11256168801956       -0.00744268092983
C            1.05510091043583        0.16923176173290       -0.00737157691151
C            0.13261969180692        1.35675302734775       -0.00030826738873
O            0.54757350616646        2.49077517888050       -0.00203524195069
N           -1.20364387375569        1.05456138884297        0.00228340395442
C           -2.15945101717294        2.15723472419811        0.00719077614513
C           -1.77197961507777       -0.20497810171237        0.00310088593437
O           -2.95987945402006       -0.37322051221487        0.00893479144070
N           -0.88156192097287       -1.29056736885712       -0.00280356177322
C           -1.47561312208968       -2.61495793525148       -0.00736291862332
H            3.62567857487928        1.48002088089468        0.99993621181664
H            3.95931986655278        1.29060664471179       -0.72373127403710
H            2.60309466169827        2.33600233407401       -0.18126029314512
H            3.21400076957770       -1.41363819648440       -0.04173412586098
H           -1.60842723029024        3.09401633133527        0.02019697608893
H           -2.78752819485284        2.09991636152618       -0.88156763701746
H           -2.79927711351116        2.08132958290758        0.88598774620385
H           -1.21676939404787       -3.16500150962605        0.89931300903983
H           -1.18321733869902       -3.17237888562364       -0.89864567671855
H           -2.55829833313416       -2.48180481015811       -0.02655621558462
H            0.79772634665700       -3.12731675850445        0.02150582903687
