25
 energy: -42.465536647130 xtb: 6.6.1 (8d0f1dd)
C            3.58851544424195        0.96874716558859        0.10599547581581
N            2.51408801415209        0.03163071224582        0.08333837696012
C            2.73934475705029       -1.28356494217941       -0.11006229152568
N            1.56772604270629       -1.96950641680525       -0.09369211521657
C            0.51463373821847       -1.07163135308196       -0.01964969157221
C            1.10423554553604        0.24170950422867        0.11407975996139
C            0.37307121208085        1.37355609570508        0.12533790976974
O            0.21223153656389        2.51669801270529        0.41299543739204
N           -2.09235627423627        1.20806583979242       -0.19155012941733
C           -2.79123435607765        2.45984678390110       -0.18470580412066
C           -2.56517168798021        0.11560715270650        0.01155034219377
O           -3.28334622597126       -0.78265331446502        0.17324877673381
N           -0.75325381263831       -1.27772498917984        0.00848043995674
C           -1.21451106014766       -2.63948610845087       -0.02927543075691
H            3.74644543970283        1.37521496036671        1.09852734617636
H            4.49887750095695        0.43009858829390       -0.20559989291211
H            3.47561401144758        1.82475033925292       -0.54645092865116
H            3.68315146961580       -1.74199878216413       -0.23478717109532
H           -2.07274379980534        3.25843300529680       -0.05693774675621
H           -3.31725818423686        2.64647012934752       -1.11832747534795
H           -3.49562229857025        2.55604624809425        0.63385954305028
H           -0.65771965105828       -3.24085655604010        0.69216779372079
H           -1.06603205430417       -3.02571757716738       -1.04165288656400
H           -2.27380965345398       -2.74339833021215        0.21734427651011
H            1.51624544288998       -2.96509431270214       -0.17094758652209
