72
 energy: -99.370132252192 gnorm: 0.003008051618 xtb: 6.6.1 (8d0f1dd)
N           -1.62764167657268        2.89934872035651        2.24713841288855
C           -2.18937418279086        2.94579488302172        1.23145867986157
C           -2.86795019165372        2.98583274013767        0.04315395065146
C           -3.24519046566993       -0.46500647931012        1.30809948548905
C           -4.20431765660283       -0.49223884377985        0.30509391933920
C           -4.89437646499982       -1.66227357516894        0.02044323424737
O           -5.85442364508316       -1.79742967977838       -0.91313360327745
C           -6.25670684447961       -0.67247396384005       -1.65744787778732
C           -4.59994196717132       -2.84292605266835        0.76209421206103
O           -5.32182125589447       -3.92337622699489        0.41839540729161
C           -5.15869365939680       -5.12432082039014        1.13751309305420
C           -3.62835623367031       -2.79532083840742        1.75416600010547
C           -2.95857911624039       -1.61137591025974        2.02516209216131
C           -2.14306242211985        2.78129477351332       -1.24720042069755
C           -1.39669642391764        1.43969461481801       -1.35980630911322
C           -0.14627161522822        1.38596548990238       -0.47994125953714
N            0.68636192213444        0.24338656608223       -0.77081822066855
C            2.06063272040665        0.32423215958997       -0.33881628722423
C            3.01419358326000       -0.12255497047334       -1.46698254972186
C            4.44154609806802       -0.00183127723797       -1.02638435376350
C            5.15794195117851        1.16806736303962       -1.25002332488175
C            6.46843704625989        1.29535444306350       -0.82180615531090
C            7.09729666592997        0.25291464510632       -0.15081587943234
O            8.35762498566133        0.26109514218055        0.30858160819696
C            9.15982457582076        1.40445533292996        0.11848497487972
C            6.37077777386377       -0.95124673856494        0.08799399034629
O            7.05408668160861       -1.90815290238108        0.73777100652697
C            6.43282393202229       -3.14144230330479        1.01415576916737
C            5.05831666695050       -1.05166696753080       -0.35156903183446
C            0.06197062764119       -1.04223048656995       -0.59328494317535
C           -4.30598050349444        3.39343842330185        0.03850216775690
C           -5.02335153498264        3.05204352413182        1.34433951638933
C           -4.38433339615894        4.91132626860274       -0.22056071240772
H           -4.42199514182120        0.40805801834779       -0.24699512026401
H           -6.62385890252003        0.12822673014915       -1.00741037958989
H           -7.06788134721145       -1.01839863861253       -2.29535100255991
H           -5.44123096055847       -0.29422097758776       -2.28279036237832
H           -5.37721053535113       -4.98599682352928        2.20031164725447
H           -5.87663973220308       -5.82097912907663        0.70821723392696
H           -4.14780004580663       -5.52719383276323        1.02072288228696
H           -3.39532652797667       -3.67749925000345        2.32753341069405
H           -2.21867080042618       -1.58818236616921        2.80987687769832
H           -2.86442861337584        2.84778488338992       -2.06436061222310
H           -1.41285274056583        3.58786792652260       -1.38389278641880
H           -2.07717225119699        0.62807664128848       -1.09926000105910
H           -1.08875639735602        1.30958419388020       -2.39944960456720
H           -0.44040870804109        1.38817988401629        0.58041636529412
H            0.44728670195637        2.28528073565099       -0.66339806733952
H            2.23523760785631       -0.30036468594422        0.54723933949283
H            2.29958710256082        1.35492197660865       -0.07165617933774
H            2.83436260037221        0.50939038834719       -2.33685839204370
H            2.79036210949897       -1.15396716483335       -1.74072505055603
H            4.69291059149189        1.98944370801056       -1.77299031636552
H            6.99922751696217        2.21268582553345       -1.01755985829000
H            8.73015609218738        2.28062706644344        0.61297076363608
H            9.30500742653703        1.61847112953724       -0.94442677528011
H           10.11935958917708        1.16663917073375        0.57373740186772
H            7.18157905292243       -3.73520032218675        1.53499149458727
H            5.55858145466675       -3.01343681272880        1.65978174414450
H            6.13776410905415       -3.65574266056216        0.09450596951482
H            4.50257776687557       -1.96025662507467       -0.18047918047542
H           -0.72272260008797       -1.18308556776253       -1.33559414805931
H           -0.38657970247293       -1.14687595537507        0.40451556257566
H            0.80076576299039       -1.82808579382415       -0.72785177278901
H           -4.80776876463357        2.89035967154760       -0.79928030953173
H           -4.56786306234511        3.57989128797341        2.17967333677823
H           -4.97812486361676        1.98456479170030        1.55347130346936
H           -6.06787872599910        3.34706114018126        1.27998232500021
H           -3.89576716717660        5.45316158957860        0.58624124609527
H           -3.90309865027155        5.17277489548202       -1.16042195205625
H           -5.42601145322187        5.21738377737980       -0.26532168665315
H           -2.73296816858273        0.45481364312860        1.53919290454479
