25
 energy: -42.159749202536 gnorm: 0.007342679406 xtb: 6.6.1 (8d0f1dd)
C            3.29920252704637        1.11362954976228        0.02012067722355
N            2.31671819176325        0.06330635348357        0.00414081337017
C            2.54545087368881       -1.24643277483910        0.01375665788992
N            1.37353972774787       -1.92424868926400        0.01348200343507
C            0.35589013880253       -1.01050328763484        0.00927426996214
C            0.94507709507764        0.26149999534721       -0.00052007520673
C            0.20579696741914        1.46451601189351       -0.05446459844878
O            0.61292871053200        2.60406503115765       -0.08874251144274
N           -1.24445219731968        1.20993913547744       -0.09019896817066
C           -2.01037102100057        2.29722199968647       -0.18682377490632
C           -1.75003881233934       -0.04748601704044        0.02187647965508
O           -3.08364813000702       -0.25786929660266        0.07985629978185
N           -0.97249189349946       -1.18258409073301        0.03461934884378
C           -1.56458912994381       -2.50611118493214        0.04906196106621
H            3.83135958085607        1.12143596015490        0.97327801474123
H            4.02044521251889        0.97303473774222       -0.78472240917252
H            2.78767400399439        2.06691539159491       -0.10866975048917
H            3.51220317278002       -1.70794908784428        0.01598812968114
H           -1.51020120942522        3.24311369775573       -0.20925571742209
H           -3.07155170886785        2.22849883074355       -0.32217546380786
H           -3.55531184036909        0.49537190400529        0.45955830939891
H           -1.20032056461981       -3.06783586033250        0.91011229937933
H           -1.31789811216220       -3.03717322789614       -0.87120410441855
H           -2.64426535817120       -2.40755145280243        0.11830490185729
H            1.27928528959837       -2.92856508728343        0.02451882509990
