25
 energy: -42.174563267029 gnorm: 0.008285195425 xtb: 6.6.1 (8d0f1dd)
C            2.87263054227890        0.71437234701436        0.46271229274682
N            1.84299522752010       -0.21772338889080        0.06381401462153
C            2.12913620215401       -1.41020050877399       -0.44729878162273
N            1.15483764846979       -2.24713737425283       -0.91742848377312
C           -0.19879273912357       -2.10899056142398       -0.52837326329212
C            0.52311100372527        0.16791062103167        0.23635011257449
C           -0.04447103269510        1.45944806521643        0.10171582519776
O            0.45923747373511        2.56204891607273        0.12696164998855
N           -1.44648119706906        1.23702706058141       -0.07491495678858
C           -2.38473592349868        2.32631551431387       -0.21839796646998
C           -1.78364735704755       -0.05325211440419       -0.15665122622469
O           -2.80276730298242       -0.64368202842264       -0.35337955692923
N           -0.49839307994808       -0.81829010137647        0.08959883943601
C           -0.55696021528747       -2.03358806832509        0.91104997618674
H            3.09195913272657        0.60685862208596        1.52710481436620
H            3.77909621728215        0.53826127815381       -0.11143124961177
H            2.51550782864031        1.73051082726336        0.28834172841602
H            3.15598822276021       -1.69903691711239       -0.57980952564854
H           -1.83088789876319        3.19618418037434       -0.57033714158777
H           -3.16161054588535        2.04883183003440       -0.92844601596345
H           -2.84167831043069        2.56130107174067        0.74451839872523
H            0.21778314501192       -2.14348776045393        1.65848985356553
H           -0.91702520413887       -2.49466389098934       -1.23756309976746
H           -1.55598143550335       -2.31600849847021        1.22305069665344
H            1.44158111216493       -3.14477057938890       -1.27850531689890
