72
 energy: -99.338774464208 gnorm: 0.009199320446 xtb: 6.6.1 (8d0f1dd)
N           -1.86441492152114        2.83644861267434        2.21052878351100
C           -1.81706546384198        2.12473553389421        1.18466498238910
C           -2.96277129118562        1.91230676941305        0.23456812220343
C           -3.43423497482719        0.46845450210714        0.32236285922249
C           -4.36246864995799       -0.01252365449231       -0.60347001267967
C           -4.83912536617780       -1.31080406046441       -0.54382832209690
O           -5.74481363724341       -1.84754516553111       -1.38965893138693
C           -6.35998073119739       -1.02242614117789       -2.35051638904960
C           -4.36589164052226       -2.18378924211150        0.47147453216828
O           -4.87745303164809       -3.43268648159476        0.44885719066216
C           -4.52551476332741       -4.33350226821273        1.47218943938809
C           -3.44511217998423       -1.70128955190419        1.38678138682365
C           -2.98864192738999       -0.39044221280368        1.31399169302977
C           -2.40354988456083        2.19990823651739       -1.18376361660340
C           -1.47792088547334        1.10284910356129       -1.74089683108054
C           -0.15299165719296        1.06624311728003       -1.08431975868564
N            0.48129277339148       -0.03535645910756       -0.68412468701388
C            1.84656941424030        0.03725275249979       -0.23119351876030
C            2.84167106770362       -0.42791108001761       -1.31784151026772
C            4.25063450601156       -0.19601820360627       -0.86693744666173
C            4.92124430727607        0.94438074972160       -1.14105462154032
C            6.23655739377573        1.18735973872365       -0.68538535490927
C            6.93351879785708        0.21784530250334        0.01347152871057
O            8.19553281185130        0.34288989665039        0.47280590162265
C            8.89161606196238        1.54743080928006        0.23386941202620
C            6.31673503615955       -1.02837463611045        0.28190823611048
O            7.06509802611036       -1.98168664206808        0.81173315309717
C            6.65788465279782       -3.16503292515014        1.17342328666019
C            4.87690717588494       -1.27869149392411       -0.04581407076486
C           -0.13071937406459       -1.34048576129830       -0.75150557070915
C           -4.17885393606645        2.84196540778967        0.52112469516010
C           -4.82170479995061        2.52154718537091        1.86851568035306
C           -3.82780380709198        4.32589433557585        0.45718236812139
H           -4.72881809041400        0.64543651434670       -1.37368551209339
H           -6.87111395808620       -0.17527851796792       -1.88316089851744
H           -7.09241783259086       -1.65303848107504       -2.85057180289821
H           -5.63885198105258       -0.65457331742809       -3.08791715683525
H           -4.80229068552096       -3.94861036417305        2.45821786970903
H           -5.08936340630941       -5.24163743115183        1.26832328405356
H           -3.45473911819050       -4.56168537135042        1.45631823247305
H           -3.08260299369167       -2.33517932777282        2.17978420408194
H           -2.29692598287065       -0.04222398203177        2.06545562322274
H           -3.23967200968051        2.31671127306027       -1.87224396090682
H           -1.85994712139263        3.14519192107141       -1.16234845952117
H           -1.97963081871685        0.13838517784256       -1.68737537111793
H           -1.31601067845985        1.33696482515419       -2.80136773432258
H           -0.90341874995591        1.60274620347390        0.83970656100314
H            0.41350559757180        1.98478889496064       -1.05106443629200
H            1.95918825447633       -0.58383220925317        0.66182176702372
H            2.08462681954063        1.06875782279025        0.03606605168161
H            2.64358456458050        0.13935133038292       -2.22861389123297
H            2.67893899512385       -1.48648270275664       -1.52854271174214
H            4.44988925548710        1.71035288750776       -1.73980367634343
H            6.69183142242888        2.13369220743660       -0.91877530337302
H            8.38198504706003        2.40090626703837        0.69025204562972
H            9.02163757595493        1.72704937289181       -0.83692292086482
H            9.86627287898894        1.41856503631072        0.70013889973865
H            7.43198855372719       -3.85019450957012        1.48678974481437
H            5.61742628125644       -3.46301381363405        1.14146006022484
H            4.79292323816935       -2.23161599377608       -0.59698366342728
H            4.30360291776252       -1.41624102958683        0.88671536164993
H           -0.27318144016231       -1.65805441801424       -1.78681046402306
H           -1.10110704109781       -1.33356020670827       -0.24899979768905
H            0.51044696096397       -2.06305330226243       -0.25301604758394
H           -4.91799728942162        2.63583569134426       -0.26137664536206
H           -4.12440498901538        2.73264605079140        2.67260189012793
H           -5.11907930353020        1.47717639596517        1.92350893325650
H           -5.70667664953351        3.13734100397901        2.00535663602707
H           -3.07796412369962        4.56842893834728        1.20368981935326
H           -3.46374119850533        4.61545260198658       -0.52505151119464
H           -4.71859296798345        4.91183886112938        0.66775409188362
H           -1.01701343800445        2.92584914921509        2.76279312293746
