25
 energy: -42.118924935412 gnorm: 0.008460297805 xtb: 6.6.1 (8d0f1dd)
C            3.03121918236207        0.75513287663684        0.16226526583781
N            2.43445610401664       -0.56890780636350       -0.00994142521585
C            3.32749942830134       -1.64117369776778       -0.10752162456283
N            3.08928154877802       -2.86073296976384       -0.19117203544622
C           -0.06625291391924       -0.19952071816052       -0.03059561273204
C            1.14134867793627       -0.75404324382811       -0.03160644586461
C           -0.41561731660472        1.28160220031070       -0.09977134701842
O            0.34992293785690        2.20600019901573       -0.15168957887273
N           -1.77239195521479        1.31134696761533       -0.05213480403610
C           -2.58828418439324        2.50255109557823       -0.05938680038280
C           -2.33211198688423        0.03512530528628        0.01869351071155
O           -3.49397396803706       -0.23756071053576        0.06195373611548
N           -1.26933735633023       -0.85809578343232        0.03229236288368
C           -1.45152812292881       -2.28031102319514        0.08405693231702
H            3.58244103147498        0.79410150381946        1.10245736599203
H            3.71460856034512        0.94414804662975       -0.66670596648660
H            2.26130344393953        1.52564639993411        0.16155954133186
H            4.36832182950557       -1.32619502216871       -0.09184652808389
H           -1.93944558021745        3.37560887953196       -0.08522312170908
H           -3.24239717053694        2.49338908452896       -0.93276013931862
H           -3.20939696263077        2.52082662899278        0.83784564040450
H           -0.99872933387975       -2.69426403523697        0.98686836049885
H           -1.00222775422281       -2.75235119763958       -0.79194068726094
H           -2.52331287245110       -2.47749423690860        0.09361113881481
H            2.16503624783407       -3.27659020128312       -0.20813612001524
