25
 energy: -42.183060867059 gnorm: 0.009971828396 xtb: 6.6.1 (8d0f1dd)
C            3.24980065508933        1.08222134397484       -0.05136690897153
N            2.29948290857447        0.00716192392701       -0.02430962864302
C            2.57007428204928       -1.30379251933755       -0.00971853180413
N            1.41071609012987       -2.01499345958610        0.03235012557376
C            0.37907649822217       -1.13164587658782        0.04823477651519
C            0.93013073713784        0.16137611244149        0.00876598792577
C            0.12146808748954        1.29457061451875       -0.01849587572921
O           -1.60168316869776        3.22406241444773       -0.68815701074893
N           -1.19961264250532        1.02774399246833        0.05633019447065
C           -2.09463985319160        2.19079001002346        0.07802413915016
C           -1.81216365792635       -0.22417782285462        0.11200329092208
O           -3.00629758490248       -0.36011387591477        0.16981797356553
N           -0.95216168971284       -1.33831496603846        0.08664552562578
C           -1.52795633412855       -2.66705775634153        0.07685486519724
H            3.72417238025583        1.20148700759319        0.92498135289049
H            4.02296101922460        0.88710799391938       -0.79393958460423
H            2.72372337854508        2.00149842749689       -0.30043492495068
H            3.54848716026234       -1.73678975259789       -0.02172723660776
H           -2.21294650155079        2.51146254273260        1.12649195652411
H           -0.62928195233020        3.11772606596008       -0.74542050879798
H           -3.07649495480908        1.89427304435150       -0.30819335188433
H           -1.26346496065865       -3.20676850561274        0.98684987682806
H           -1.18654328940239       -3.22044908539133       -0.79825526212359
H           -2.61070311224697       -2.55645146059663        0.03266177591366
H            1.35428801918219       -3.02268787139765        0.05117860166518
