  25
        -42.18881837
 C          3.2342992220        1.1258852073       -0.0206223760
 N          2.2596256136        0.0687096051        0.0073199781
 C          2.5319360927       -1.2503262828        0.0271997051
 N          1.3751855826       -1.9523241545        0.0365506621
 C          0.3421861448       -1.0699201589        0.0217690117
 C          0.8886939753        0.2190030723        0.0041275128
 C          0.0492574040        1.3280394102       -0.0099578305
 O          0.5237346709        2.5886531079       -0.0779994823
 N         -1.3123248407        1.0957366830        0.0386386871
 C         -2.2072153007        2.0968612491        0.1144121324
 C         -1.8786615145       -0.2271488682       -0.0218770121
 O         -3.0690954849       -0.3756108075       -0.0621996759
 N         -0.9962756880       -1.2909136036       -0.0120496010
 C         -1.5285809711       -2.6414278513       -0.0106449045
 H          3.9243782270        1.0249159046        0.8172563836
 H          3.8046396278        1.0936716292       -0.9501868534
 H          2.7205300900        2.0811104630        0.0494790324
 H          3.5125562477       -1.6764977745        0.0313393323
 H         -0.1664488117        3.1851166930       -0.4128872838
 H         -3.2431349642        1.8411185366        0.0316866644
 H         -1.9224306832        3.0841188301        0.4176132702
 H         -1.2259930333       -3.1665685916        0.8957715946
 H         -1.1851131258       -3.1838240325       -0.8916601044
 H         -2.6146978753       -2.5719841441       -0.0362721240
 H          1.3067823300       -2.9587065335        0.0500416309
