25
 energy: 49.226193498591 xtb: 6.6.1 (8d0f1dd)
C            3.29239503877819        1.52193275730780        0.13317289691853
N            2.60698980612649        0.25188165318882        0.05183194200137
C            3.04380378435622       -1.00799803685873        0.07958553720818
N            1.98024471542022       -1.86362380944789        0.04696127590586
C            0.80743115523335       -1.12994314893344       -0.00853771949572
C            1.24400087118599        0.20445668694765       -0.01875974153180
C            0.32928917166849        1.30364453288327       -0.07771159144989
O            0.62658380375865        2.49482092278501       -0.10985653905719
N           -0.95739091128446        0.86346511199352       -0.07673614252462
C           -2.01469345833687        1.86008992717799       -0.06503655129843
C           -1.36159748795355       -0.49172331909462       -0.02599287065342
O           -2.56442568086353       -0.60954967435429        0.02370422725436
N           -0.45612120438882       -1.51628943095726       -0.02318789300441
C           -3.32529650753829       -2.99774978323112       -0.12770704338535
H            3.98526307333214        1.54530194916786        0.97094527452252
H            3.84452591600323        1.71931922780469       -0.78687463610087
H            2.52058107355187        2.29170034493191        0.27618745915832
H            4.06825819528964       -1.31905981275295        0.13386378824305
H           -1.52403308543602        2.83235474666724       -0.06647289365351
H           -2.64951558859985        1.73502954970950       -0.94138972166141
H           -2.63104432641883        1.73887633856274        0.82633165944452
H           -3.06657638830601       -3.51687518659417        0.76052109849711
H           -3.12516507992914       -3.41213324664431       -1.08252293869644
H           -3.68307676909268       -2.01030088688041       -0.06140310691420
H            2.03990747002911       -2.87268518048701        0.08325292736086
