25
 energy: 46.553147286958 xtb: 6.6.1 (8d0f1dd)
C            3.32533166250155        1.59272033294930        0.12914030760199
N            2.66579983315478        0.30868441255208        0.05694811095122
C            3.13135276985736       -0.93869321548253        0.08713700174716
N            2.09226483364944       -1.82101506769333        0.05295757838914
C            0.90318728488582       -1.11568778234612       -0.00378991338826
C            1.30619082280984        0.22797514323223       -0.01511250986190
C            0.36140076805544        1.29582685711667       -0.08630668891322
O            0.63564245304248        2.49182303164117       -0.13131350681456
N           -0.91484280120538        0.82155041113290       -0.08017258846929
C           -1.98384055851755        1.80458198775648       -0.06687470579492
C           -1.28572800689968       -0.54891197159517       -0.02947339814491
O           -2.47981057942338       -0.72559079893893        0.01298485246787
N           -0.34351651763373       -1.54009547389845       -0.02070544355662
C           -3.62294160843431       -3.02830166072085       -0.13489341141332
H            4.04531372965224        1.62149800415164        0.94142645994327
H            3.81961349228588        1.82105407991516       -0.81312276860272
H            2.55175255644681        2.35207039317683        0.30125602712772
H            4.16201971041361       -1.22409267225398        0.14095122299750
H           -1.50102379020018        2.78206194930289       -0.07939570488632
H           -2.62327742040595        1.66777175523818       -0.93754309385750
H           -2.58892088960820        1.68338876018605        0.83190274329872
H           -3.43839302274340       -3.58566468381234        0.74879031402200
H           -3.51476428148030       -3.47624066277463       -1.09001580475501
H           -3.84118532400986       -2.00016146468638       -0.06523388861713
H            2.17137160625061       -2.82918283213686        0.08756899019922
