  25
        -42.20948833
 C          3.3801278143        0.5885374030        0.0485501416
 N          2.2463403863       -0.2929371082       -0.0077288132
 C          2.3047501250       -1.6424700360       -0.0288680281
 N          1.0442611608       -2.1529531372       -0.0430732669
 C          0.1663186876       -1.1120822166       -0.0293846710
 C          0.9167673273        0.0729593913       -0.0057671616
 C          0.2627462139        1.3011898454        0.0004685505
 O          0.9076574532        2.4761919566        0.0610979872
 N         -1.1203457625        1.2842829739       -0.0432761916
 C         -1.8257409417        2.4373043204       -0.1227888199
 C         -1.8910638185        0.0813471213        0.0325396248
 O         -3.0923214996        0.1222324121        0.1009036810
 N         -1.1901021604       -1.1190615955        0.0009137091
 C         -1.9370600730       -2.3610550178        0.0013850463
 H          3.8143861436        0.5925997951        1.0508453906
 H          4.1401358085        0.2618937145       -0.6605974589
 H          3.0605051680        1.5979298764       -0.1993826497
 H          3.2032918230       -2.2204625783       -0.0361304545
 H          0.2833278814        3.1779551424        0.3102269513
 H         -1.3709756885        3.3519581357       -0.4392681845
 H         -2.8838627145        2.3736999233       -0.0044292182
 H         -1.7066034940       -2.9444219801        0.8937166668
 H         -1.7080313166       -2.9402253396       -0.8937746375
 H         -2.9968223666       -2.1113192729        0.0041917481
 H          0.8153964180       -3.1343198720       -0.0645899529
