  72
        -99.35792217
 N         -3.2256607318        3.1594574172        3.0711753151
 C         -3.1466733956        2.0411920789        2.5104913829
 C         -3.3735397698        1.8463114233        1.0233003874
 C         -4.0727792005        0.5330746304        0.7416808064
 C         -4.0000010914       -0.0112829895       -0.5413864931
 C         -4.6804233534       -1.1723840752       -0.8686217765
 O         -4.6825298422       -1.7600511021       -2.0839787909
 C         -4.0636320134       -1.1085467630       -3.1664862943
 C         -5.4595193818       -1.8314952112        0.1240456827
 O         -6.0772562943       -2.9588684499       -0.2761010524
 C         -6.9143732429       -3.6402892820        0.6299766415
 C         -5.5348153810       -1.2734399678        1.3917236467
 C         -4.8569948644       -0.1014902957        1.6931064161
 C         -1.9265799825        1.8359203777        0.6368307972
 C         -1.1437418251        0.7145886695        0.5939378265
 C          0.2393941191        0.7893204448        0.4262850178
 N          1.0760049403       -0.2468414599        0.3658416428
 C          2.5032179003       -0.0466594409        0.3197767916
 C          3.0842853099       -0.1820923938       -1.1016855207
 C          4.5825273116       -0.0943096337       -1.0293992876
 C          5.2451404463        1.1009554824       -1.2576663209
 C          6.6229937198        1.1853524661       -1.1257278323
 C          7.3678393943        0.0752595948       -0.7519130958
 O          8.7001581279        0.0443504461       -0.5770299862
 C          9.4480582583        1.2244852537       -0.7598288878
 C          6.6968864546       -1.1595744969       -0.5238582879
 O          7.4925264735       -2.1885133925       -0.1731395754
 C          6.9203250614       -3.4526354768        0.0636551718
 C          5.3197126660       -1.2190876259       -0.6644005265
 C          0.5878818260       -1.6043650340        0.3416319376
 C         -4.1946377666        2.9810078099        0.3424606726
 C         -5.5627981343        3.1160014581        1.0060769675
 C         -3.4978533559        4.3385631785        0.3243110692
 H         -3.4054534570        0.4924740567       -1.2880955918
 H         -4.4865562034       -0.1139447954       -3.3323463218
 H         -4.2638212750       -1.7342842674       -4.0347967594
 H         -2.9812221806       -1.0234057158       -3.0223822207
 H         -7.7377711131       -3.0050534996        0.9685450304
 H         -7.3160134589       -4.4871350057        0.0766752613
 H         -6.3545789919       -4.0052203023        1.4960206303
 H         -6.1359461779       -1.7385404998        2.1558261774
 H         -4.9637076963        0.3188517450        2.6809126043
 H         -1.4587771790        2.8013604286        0.5287238250
 H         -0.8179745832        0.9090722944       -2.9340310520
 H         -1.6103163010       -0.2529648535        0.7078099765
 H         -0.7782473834        0.9439130861       -2.1553795679
 H         -2.8236171392        1.1191063769        3.0121110880
 H          0.6982244790        1.7669026691        0.3702816469
 H          2.9802139732       -0.7840500860        0.9729134310
 H          2.7407204649        0.9466781511        0.7057352814
 H          2.6851366613        0.6149886676       -1.7304795567
 H          2.7844686808       -1.1402124497       -1.5293532002
 H          4.6895132071        1.9792355393       -1.5481372128
 H          7.1108479762        2.1271959230       -1.3162497877
 H          9.1196658277        2.0161835049       -0.0799378965
 H          9.3868131936        1.5804514233       -1.7918993906
 H         10.4768490972        0.9556702423       -0.5307563634
 H          7.7517895595       -4.1063627118        0.3204634482
 H          6.2130336061       -3.4230456363        0.8992403661
 H          6.4180458069       -3.8391679786       -0.8288538836
 H          4.8028664796       -2.1516003516       -0.4992482313
 H         -0.1504666368       -1.7355940920       -0.4517625762
 H          0.1224127667       -1.8667533910        1.2954490596
 H          1.4153894546       -2.2850328691        0.1645875119
 H         -4.3482429831        2.6596021520       -0.6947082627
 H         -5.4488356633        3.4857929986        2.0211055698
 H         -6.0846016117        2.1624517900        1.0322004390
 H         -6.1732703807        3.8222489586        0.4499610193
 H         -3.1874513887        4.6129975283        1.3281877416
 H         -2.6382911416        4.3455470802       -0.3415557091
 H         -4.1969633651        5.0888649737       -0.0361307542
 H         -2.9982429419        3.2053744268        4.0593810858
