25
 energy: -42.442123875846 xtb: 6.6.1 (8d0f1dd)
C            3.25314199269437        1.14431161114656        0.04446027596209
N            2.32915368501998        0.04812461293180        0.01902059443250
C            2.63576865277428       -1.26213592449746       -0.00578860171996
N            1.49876421530688       -1.98964694357729        0.00151486277138
C            0.43938518742207       -1.14327187557326        0.03789001241921
C            0.93831857779981        0.16582180835928        0.05149043504586
C            0.11597041411428        1.30651672159325        0.07497327361489
O            0.46968944486406        2.48703791298756        0.07365976599191
N           -1.27642905571797        0.95578512505306        0.11071680331122
C           -2.16936864549865        1.95778614408983        0.16135597073950
C           -1.79288506538101       -0.34989173419514        0.09549011667855
O           -2.98635934279358       -0.57285794721712        0.11991880288095
N           -0.88398921036534       -1.41035460206772        0.05581288960649
C           -1.37772717681821       -2.77057962237918        0.02866894688693
H            3.74360759899740        1.21067594381353        1.01844168683470
H            4.01369593519518        1.01506600011202       -0.72598346347956
H            2.69279562930324        2.06258368856362       -0.13200689314804
H            3.62559516639789       -1.66182216321989       -0.03769879988022
H           -1.79758669113434        2.96090089456855        0.15148514661274
H           -3.25696745255171        4.43798886053438       -1.54409293421656
H           -3.21374850568901        1.71947894735944        0.18120300261755
H           -1.06224101577894       -3.31270335723601        0.92251111622246
H           -1.02200903150580       -3.28842602730321       -0.86406595079498
H           -2.46549369948088       -2.72038962647521        0.00580248848470
H            1.45904921797345       -2.99644666110297       -0.01574148779935
