  25
        -42.08237145
 C          3.1484042739        1.0827751081        0.0198028024
 N          2.2778048120        0.0777161663        0.0076576039
 C          2.5442123893       -1.2497220819        0.0125093020
 N          1.3846691761       -1.9519427076        0.0130894838
 C          0.3466972404       -1.0642383808        0.0101562684
 C          0.8899486787        0.2060151667        0.0068583950
 C          0.0673638855        1.3983314810       -0.0049055667
 O          0.4727409295        2.5337541062       -0.0268625342
 N         -1.2877952815        1.0664876829        0.0121647891
 C         -2.2453441216        2.1665664041        0.0311518370
 C         -1.8583280239       -0.1904658475        0.0100401684
 O         -3.0419760522       -0.3679712249        0.0133575796
 N         -0.9705969948       -1.2993472728        0.0032497228
 C         -1.5250600881       -2.6386492646       -0.0102631506
 H          4.2074420286        0.8785044330        0.0200513629
 H          5.6492952247        1.6257951391       -1.3144314608
 H          2.7641537166        2.0875419148       -0.0048688171
 H          3.5219711635       -1.6860077593        0.0270708867
 H         -1.6882212250        3.0991414821        0.0008363378
 H         -2.9103941977        2.0928624642       -0.8287063791
 H         -2.8468668411        2.1144103413        0.9381548442
 H         -1.2101000516       -3.1932055463        0.8737709678
 H         -1.2251788836       -3.1676914591       -0.9154146588
 H         -2.6104032879       -2.5406667326       -0.0004374969
 H          1.3190914146       -2.9597409274        0.0179491639
