25
 energy: -42.443279425376 xtb: 6.6.1 (8d0f1dd)
C            3.28835228735328        1.27452296507365        0.09678930636799
N            2.37109804969266        0.16581952150625        0.07901447474581
C            2.68144805056855       -1.13199702304183        0.10314867375306
N            1.55506495225984       -1.88387729960317        0.10375308575401
C            0.45785308293263       -1.03973877684596        0.08158240275543
C            0.99046831252383        0.27497612473963        0.06771195367023
C            0.18537956005196        1.42821743100301       -0.00125527860297
O            0.58187304657477        2.59681696634894       -0.02914946843795
N           -1.17139610595758        1.08307681976420       -0.04196974304199
C           -2.12263109112219        2.17318731266982       -0.14657786796289
C           -1.72136407337367       -0.17054557653790       -0.04468883915639
O           -2.91526918911889       -0.32987778675503       -0.14923461204567
N           -0.86322622923229       -1.31351359265696        0.05843444833399
C           -1.52284722675928       -2.52898370808890       -0.04204577255446
H            3.91907374647535        1.23722096325493        0.98347787502334
H            3.92523608896325        1.25824001156994       -0.78690193788963
H            2.71792488108151        2.20540785176805        0.10206060378541
H            3.67920627418714       -1.51426496706206        0.13996865955114
H           -1.53785682871292        3.08918090090199       -0.13424747170949
H           -2.69581919217061        2.10394646279981       -1.07030006075565
H           -2.81244590165591        2.15127646240544        0.69432263415877
H           -0.89477993533146       -3.39330263906677       -0.20566199055202
H           -2.44643040023293       -2.42150255690828       -0.62528674037388
H           -3.30460486698294       -4.38063129615318        0.18368677527688
H            1.55043600483286       -2.89156745267505        0.12348970057138
