72
 energy: -99.544433460911 xtb: 6.6.1 (8d0f1dd)
N           -1.80412541595905        2.57759526242387        2.40042722553971
C           -1.63723734658165        2.02605959562000        1.29050100068593
C           -2.75352406826413        1.86534027667304        0.27127232935825
C           -3.31558173804127        0.45115169491266        0.36455171988515
C           -4.34527082001431        0.08000904403202       -0.50050095025489
C           -4.88772646699320       -1.18756939167230       -0.46619945239941
O           -5.86960937532698       -1.64608296861010       -1.28916401973895
C           -6.40266177960253       -0.77989673560682       -2.25958062209069
C           -4.40913144958846       -2.12660454694292        0.47301691907319
O           -5.01266039399723       -3.34983466158889        0.43550635831935
C           -4.66660716963258       -4.31729453192922        1.39269263744863
C           -3.39614131759524       -1.75263801109039        1.33198968143821
C           -2.85750004702415       -0.47207569163216        1.28051050690275
C           -2.16245841711993        2.11036377182692       -1.13687531517496
C           -1.26660340296369        0.98529762402928       -1.68116826889202
C            0.05934625329885        0.95512316611020       -1.01853865365045
N            0.68907366287743       -0.18050840574287       -0.59627037074603
C            2.07922872398327       -0.13785543204575       -0.24063472655279
C            3.02488115760091       -0.61405541940252       -1.36482579314688
C            4.45025085235274       -0.49544897362615       -0.90877939022034
C            5.16475785190918        0.67017178433727       -1.10750330240258
C            6.46648769714210        0.79507195366185       -0.64226675507799
C            7.07301566591801       -0.24596334180135        0.03566196015505
O            8.33724351234997       -0.23192321337941        0.53772312104194
C            9.12302173650154        0.91877530932266        0.35744177849232
C            6.35295551938515       -1.44519189471476        0.24335591134254
O            7.03045862760072       -2.41812806309844        0.91278970952599
C            6.39643050900065       -3.65138684297568        1.13717134087706
C            5.05827875242105       -1.55086531319904       -0.22808897648955
C            0.06690140927839       -1.47545749251852       -0.70352282147983
C           -3.82905181561160        2.86020340855347        0.52562773498005
C           -4.62533436706092        2.80717480830560        1.76610814435243
C           -3.77151204369111        6.25784086703136        0.75575005849858
H           -4.72968813930719        0.80723751868919       -1.19544152959404
H           -6.88370531933732        0.08975070501218       -1.80289856810628
H           -7.15154432169586       -1.36977165206095       -2.78835079372310
H           -5.63897427627988       -0.44360596608568       -2.96997817237440
H           -4.84851314251225       -3.97047253767094        2.41481406469008
H           -5.31370628360499       -5.17026954467146        1.19073538427250
H           -3.62277408204896       -4.63827798407236        1.29719584360935
H           -3.01511218445688       -2.45380131683890        2.05802411172070
H           -2.08375920488857       -0.20359811224312        1.98226677395309
H           -2.99707829929447        2.22741749755112       -1.82682640981234
H           -1.60714011421629        3.05076733242404       -1.13354115536877
H           -1.78608415733255        0.03211271296643       -1.58221542797063
H           -1.14042407926491        1.18055470732207       -2.75872388449369
H           -0.67013495627816        1.62945722809366        0.90971772402801
H            0.65740917654209        1.84641659147041       -1.04291131519979
H            2.23399438167318       -0.76549053503830        0.64309111843646
H            2.34744766250816        0.88723595716625        0.02200692543412
H            2.86053915294887        0.00275162583369       -2.25015684046759
H            2.79727609514803       -1.65075110740505       -1.62181670670041
H            4.71499817741115        1.49623407154756       -1.63721930592405
H            6.99832000245904        1.71640853299795       -0.81760784405734
H            8.67529447697625        1.79331551211043        0.84124887811126
H            9.28751336903784        1.13502818489780       -0.70346331625215
H           10.07827184161451        0.69541158824164        0.83052723531642
H            7.12756223299171       -4.26117846059800        1.66579866805731
H            5.50137437075885       -3.54170535345181        1.76005155203867
H            6.12790552973710       -4.14559542611477        0.19713166327849
H            4.50037324853319       -2.46260652398221       -0.07734879939118
H           -0.07429421914657       -1.78573885878038       -1.74450378878021
H           -0.90487985348502       -1.47213693584023       -0.20592759915752
H            0.69922215878685       -2.21110043518853       -0.21106682013065
H           -3.94886980980140        3.69614280226466       -0.13828375145219
H           -4.02141056861459        3.12445546739642        2.62200297285225
H           -4.95364592661364        1.78343630966386        1.98353491594192
H           -5.48636089104681        3.47161336799475        1.67743897482079
H           -3.07692362448515        6.17173126858108        1.56629702849845
H           -3.39093790869302        6.67686966110930       -0.14151319029930
H           -4.77624666871498        6.50442633897270        1.01730434696644
H           -0.99126728866969        2.67479598532905        3.00197211882397
