25
 energy: 75.165790442727 xtb: 6.6.1 (8d0f1dd)
C            3.63256403452945        0.92283589270689        0.19254336646372
N            2.61081517513567       -0.06754255483790        0.13541589285127
C            2.84978772775184       -1.38207472804992       -0.03064576973689
N            1.68124915105314       -2.06162291807836       -0.08835671980409
C            0.62003416491454       -1.16881227721570       -0.01557949275702
C            1.21474826620536        0.13884442384836        0.12268395913295
C            0.53413249395011        1.28603029151905        0.11799524527094
O            0.39337169868645        2.44584474293793        0.39558942044654
N           -2.39938627564127        1.46581402378431       -0.04935078987014
C           -3.16210720470886        2.61417786764909       -0.30065854346525
C           -2.69657730800092        0.38443241901762        0.32704443671746
O           -3.03496510944034       -0.60321656275595        0.80293684127950
N           -0.63137630515770       -1.33961806746801       -0.03210379624871
C           -1.21665766847124       -2.63660693595454       -0.15127033125206
H            3.48425821815564        1.65902991036306        0.97260902632294
H            4.52713024845425        0.30605435798358        0.25541625104778
H            3.73140269913380        1.59743500883071       -0.64992050987975
H            3.79138991303161       -1.82967001167507       -0.15389082731314
H           -2.37882058327255        3.35218393342316       -0.45903255292734
H           -3.77733453883004        2.44867091539190       -1.17992920956995
H           -3.81458661900436        2.83403250279372        0.54426245923568
H           -0.48175151344575       -3.36691804962923        0.12487714151511
H           -1.57659741751858       -2.81187757433047       -1.17374757675325
H           -2.11131856012127       -2.73604575424612        0.49765227984242
H            1.58379106586639       -3.04227162679241       -0.22573154289410
