72
 energy: 109.322348750882 xtb: 6.6.1 (8d0f1dd)
N           -1.72377507275346        2.76172942112501        2.11715444003575
C           -1.59301902887386        2.16770826765454        1.02116602197657
C           -2.72083456659804        1.98509952343952        0.01346709559530
C           -3.31960727869787        0.57402020809317        0.20039287307609
C           -4.35856188545633        0.14913748870206       -0.63147770107345
C           -4.90930507464912       -1.11254552354811       -0.51511848178974
O           -5.91160219495522       -1.59467652887196       -1.29743614006496
C           -6.48246242452594       -0.75173131885550       -2.26604068847349
C           -4.42682659811439       -2.01115284309808        0.46354309678776
O           -5.04104238443635       -3.22587931384434        0.50248629198791
C           -4.67489655199070       -4.14270703190759        1.50223076045431
C           -3.39149149536025       -1.59924866408584        1.27840054095693
C           -2.84796147009397       -0.32151421726985        1.14509955148567
C           -2.10869681256632        2.07375554282592       -1.39599346760886
C           -1.20592779481613        0.89214773101551       -1.80186414712526
C            0.12665301592738        0.87784952095319       -1.13841496830021
N            0.72379934306314       -0.22725974131991       -0.61721081676919
C            2.10765253779655       -0.17094226289343       -0.23330598050649
C            3.06023300543875       -0.65559979727627       -1.34790094868575
C            4.48154550317224       -0.52310198388271       -0.89340803022870
C            5.18335975704068        0.65094910847924       -1.08994977500318
C            6.48462383901347        0.78690452340320       -0.62360039622563
C            7.10066819396639       -0.24709725457316        0.05908593773766
O            8.36961688798042       -0.22301186226771        0.55380752643061
C            9.14723241774921        0.92915736688249        0.34806475396512
C            6.38728068325659       -1.44927734055685        0.27523232189204
O            7.07021356799458       -2.41306961708791        0.95125615588210
C            6.44649316732965       -3.65056116398090        1.17689387624402
C            5.09304265794689       -1.56677272368548       -0.19856128087187
C            0.07702840637588       -1.51038093486009       -0.65695834272351
C           -3.69873102976617        3.09319653738477        0.21602166194557
C           -4.59064544890228        3.00159738773077        1.42463578651197
C           -4.19789545426238        5.87231144718225        1.76314360074788
H           -4.74691429898904        0.83409249429893       -1.36944447625043
H           -6.90890476114323        0.15099005764997       -1.81714312372315
H           -7.28011106671279       -1.33789586785553       -2.72173930130451
H           -5.75785539494631       -0.46706881505104       -3.03736848490212
H           -4.83538080276049       -3.73367819528584        2.50406117784496
H           -5.32501965828054       -5.00461759269877        1.35823162386640
H           -3.63166983890794       -4.46247938157910        1.40149137230603
H           -3.00332843432486       -2.26224104335506        2.03815043542083
H           -2.06026349424663       -0.03367577590626        1.82687716937683
H           -2.94221754310056        2.11948935823049       -2.09898979876193
H           -1.55488914195096        3.01460281925322       -1.47970125638135
H           -1.73199061106879       -0.04603501872722       -1.63418459897238
H           -1.06038942378925        0.98763691903229       -2.88722336225657
H           -0.64361789649055        1.71371347007762        0.64635836384323
H            0.76300203805419        1.75258582194268       -1.24480972970148
H            2.26976139856027       -0.78004871320582        0.66504414886753
H            2.35587056067898        0.86243061218986        0.01589040147377
H            2.89046257964493       -0.05632857498368       -2.24290076621392
H            2.82673456368007       -1.69554142151074       -1.58213246811573
H            4.72246024550325        1.46865964008773       -1.62262571691297
H            7.01019236198584        1.71149592387526       -0.80111079986214
H            8.70692756895516        1.80739460605106        0.83154789550273
H            9.29123557575197        1.13518512499932       -0.71778890296597
H           10.11215800004067        0.71781983314614        0.80453390938847
H            7.17956359625407       -4.25731499306858        1.70751468191828
H            5.55116008219304       -3.54447531017452        1.79808809952116
H            6.18214983311465       -4.14742565955759        0.23749302192439
H            4.54017521092497       -2.48059563823878       -0.04231133402636
H           -0.05471640179033       -1.87363036596924       -1.68245037069719
H           -0.90405185245748       -1.45895231338177       -0.17866023496116
H            0.68717999248468       -2.23138459234938       -0.11523794475741
H           -3.99857077903114        3.74324782928165       -0.59548970343911
H           -4.01531490601550        3.22957600712510        2.31562597559910
H           -4.95485623472164        1.98174951359042        1.52401750712632
H           -5.44529716504499        3.67771348227944        1.40095036315785
H           -3.50836963825017        5.61172183359386        2.53504645452438
H           -3.72138856962377        6.33215924731664        0.90000714737217
H           -5.22079681860285        6.08908585190161        2.04961777998618
H           -0.91625566117139        2.83554764479781        2.73696183197161
