72
 energy: 86.289174462999 xtb: 6.6.1 (8d0f1dd)
N           -1.70458761084912        2.83027892329453        2.16157554011134
C           -1.60666799701429        2.18723012234125        1.08288224808156
C           -2.73025759134737        2.09752295677266        0.09990835013723
C           -3.34222507067043        0.65447936106279        0.24214105170159
C           -4.35421629319000        0.19507013353788       -0.61216925520461
C           -4.89597834742284       -1.07800143468213       -0.51956452840055
O           -5.88851373023898       -1.56426892707462       -1.32103080056673
C           -6.45821398617714       -0.71164013303246       -2.27714607885493
C           -4.42334806978941       -1.98789478107647        0.45428192654106
O           -5.02996820103046       -3.21175969495830        0.47438834323499
C           -4.67100741616909       -4.13042940767906        1.47427125122023
C           -3.39593908306393       -1.56264639852334        1.27439147154123
C           -2.86965114599588       -0.27110580288081        1.16954434296821
C           -2.14491180625437        2.16022723114110       -1.33145991773400
C           -1.22058239315947        0.98852360450012       -1.78000280102201
C            0.10000180736898        0.95415375808107       -1.09869493314540
N            0.69574087897280       -0.18542364588713       -0.57977404438926
C            2.07422263129868       -0.13702520122772       -0.20810224907408
C            3.02448834097684       -0.62200238886232       -1.32608283700812
C            4.44595892509697       -0.49667229346553       -0.88016628707731
C            5.15311755225953        0.67505688474926       -1.07576245085198
C            6.45713483750860        0.80457046153766       -0.61530025590455
C            7.07188142989207       -0.23706261931889        0.05807975917365
O            8.34416543679975       -0.22136699986401        0.54819164278850
C            9.12405311911722        0.92702295294398        0.34125285557586
C            6.35557063578742       -1.43370371827024        0.27565838723136
O            7.03755591262858       -2.40539129293135        0.94938459798487
C            6.40860761106231       -3.63924384620000        1.17068209636380
C            5.05778029818681       -1.54366927461118       -0.19100595237245
C            0.03763244786294       -1.45609874707696       -0.64447744570350
C           -3.74727054942864        3.31978352524542        0.40676844604744
C           -4.62306905480692        2.93355713658182        1.58919360582526
C           -3.90072098569108        5.36497775235640        1.32743600405984
H           -4.72770196470043        0.87059421170501       -1.36255555958203
H           -6.89175051904311        0.18112765539332       -1.81466703062967
H           -7.25148620567813       -1.29300622728661       -2.74786184766999
H           -5.73007112004462       -0.41021050280936       -3.03812541629023
H           -4.84948080768258       -3.72842066660614        2.47606642642654
H           -5.31002060938807       -4.99862734990657        1.31509041429240
H           -3.62357903917662       -4.44103423136962        1.38836785361836
H           -3.00534188830968       -2.22825483017657        2.03142782887209
H           -2.09330179049173       -0.00682718645320        1.87465820529800
H           -2.97452715011020        2.20671030329121       -2.04119887536031
H           -1.57857915251188        3.09212561707558       -1.40816423617348
H           -1.72864774309418        0.03724115832485       -1.64630307056775
H           -1.10060824447385        1.11760803683133       -2.87439076127845
H           -0.68126324003491        1.67553460262748        0.74679642898411
H            0.73599465326862        1.83349664154245       -1.17451107365383
H            2.23546014101212       -0.74522859196322        0.69196047822707
H            2.32946304498457        0.89364358553922        0.04331915468556
H            2.85073373583458       -0.02095921073721       -2.21946315931790
H            2.78293725993210       -1.66031864175910       -1.56308784599616
H            4.69097910461890        1.49490627201161       -1.60338953046288
H            6.98709978901583        1.72744586470326       -0.79209777921107
H            8.69004446868899        1.80759660690106        0.82751335501987
H            9.26388656771358        1.13708062988254       -0.72507893422285
H           10.09102437343075        0.71269523817077        0.79105675874266
H            7.14114040866465       -4.25431439135679        1.69332974637720
H            5.51721104956129       -3.53335671539826        1.79767279698440
H            6.13496030500154       -4.13028680043052        0.23044623674909
H            4.50021002662686       -2.45443451250124       -0.03455513745467
H           -0.11236806041369       -1.80628309282029       -1.67499738393105
H           -0.93936059106885       -1.39615325042636       -0.15820451647244
H            0.63860851054853       -2.19415416708505       -0.11300659552411
H           -4.26280993163827        3.57628402090155       -0.50629442474414
H           -3.99059533069035        3.10551294380580        2.45195337706609
H           -4.94538755996172        1.89427405176955        1.61049449015175
H           -5.49381618582792        3.58305815371212        1.63492139855713
H           -3.22914101566685        5.31832909303215        2.16042920478601
H           -3.50358941595493        5.91539925329002        0.48811235455903
H           -4.90526929908266        5.68923502307771        1.68172908339669
H           -0.84758300659855        2.79734794037239        2.71240302236653
