72
 energy: 97.634956560960 xtb: 6.6.1 (8d0f1dd)
N           -1.70830486734407        2.82314576515726        2.14638639543830
C           -1.60372770060207        2.18296376913781        1.06900077064796
C           -2.72908356630133        2.07249432186307        0.08184921293370
C           -3.33666947639152        0.63663421302023        0.23170214931484
C           -4.35499878047733        0.18484707287973       -0.61696156861906
C           -4.89935374031080       -1.08554857099270       -0.51840406256382
O           -5.89391723811530       -1.57190606140581       -1.31569168734697
C           -6.46281413263723       -0.72064546955115       -2.27453825456979
C           -4.42312261254647       -1.99313111759412        0.45598772660681
O           -5.03091746174135       -3.21488429015180        0.48019140761100
C           -4.67160058120793       -4.13334589315425        1.48013793676798
C           -3.39324071092957       -1.57038889913013        1.27348464272630
C           -2.86411860669432       -0.28133431228611        1.16296913094029
C           -2.13742239193738        2.14151982070224       -1.34382782317085
C           -1.21690888852978        0.96913171856449       -1.78161211110377
C            0.10852961161164        0.93472943638266       -1.10696724827133
N            0.70423393485640       -0.19803051580498       -0.59434004245536
C            2.08185904643107       -0.14509984369378       -0.21342221484533
C            3.03224588025662       -0.62885996684570       -1.33030820622772
C            4.45388331702452       -0.50200952254062       -0.88236867447093
C            5.15969089096162        0.67022191959078       -1.07814872717310
C            6.46331181879710        0.80142139070836       -0.61624869743462
C            7.07837226459740       -0.23915711136845        0.05872627989926
O            8.34974453548147       -0.22191306805769        0.54980504230550
C            9.12888987701066        0.92741225440144        0.34285813868758
C            6.36290372122094       -1.43694269622349        0.27582536366336
O            7.04483225856499       -2.40745193877139        0.95055402634035
C            6.41643852747404       -3.64155045607379        1.17223209855692
C            5.06556145793291       -1.54834745155560       -0.19267182814258
C            0.04554137981613       -1.46933928796665       -0.64777238301606
C           -3.72609858794403        3.25822157984156        0.36614429539758
C           -4.62311995411789        2.94629077818830        1.55308830774520
C           -3.96626678584743        5.48855651659847        1.42952623783219
H           -4.73234876026000        0.86319580093410       -1.36408678406247
H           -6.89436329716876        0.17446626699505       -1.81481735824004
H           -7.25764329950014       -1.30199159936579       -2.74274605867479
H           -5.73537026321944       -0.42238502950705       -3.03768399383030
H           -4.84658005141900       -3.72969792895348        2.48178096565342
H           -5.31273273562474       -5.00056199287948        1.32398186888754
H           -3.62514042070298       -4.44611958514532        1.39164022771221
H           -3.00016347716364       -2.23511357283141        2.02935383215249
H           -2.08634386045683       -0.00925411336423        1.86350876597000
H           -2.96757905492382        2.18844696891676       -2.05172429865662
H           -1.57481582763557        3.07600938874667       -1.42092170217403
H           -1.72619064262658        0.01967240275455       -1.64223906205880
H           -1.09415367102748        1.09361007917979       -2.87479185874890
H           -0.67267491611151        1.68208015033726        0.72895710067560
H            0.74356766387005        1.81546095192922       -1.18870241281374
H            2.24384555807717       -0.75162874550653        0.68773277076950
H            2.33436464853677        0.88632562671365        0.03783750896342
H            2.85891758037363       -0.02817554143672       -2.22414573240608
H            2.79154016237901       -1.66737733273794       -1.56771578811963
H            4.69724811703256        1.48922886822178       -1.60694185624123
H            6.99233853956237        1.72461123546808       -0.79328276509196
H            8.69341112683695        1.80752862290019        0.82831484280723
H            9.26932137828213        1.13683318997048       -0.72341614786808
H           10.09569195339190        0.71475686190491        0.79356761255939
H            7.14851094695092       -4.25571875792466        1.69661010573335
H            5.52406000423998       -3.53543573731160        1.79772468753928
H            6.14456883238357       -4.13359081976585        0.23207117569531
H            4.50850297428256       -2.45950970372491       -0.03659741205995
H           -0.10270422739475       -1.82241448701916       -1.67664096604749
H           -0.93176768317744       -1.40865095079268       -0.16208286169562
H            0.64649127472548       -2.20541493471316       -0.11336904864921
H           -4.21109219589202        3.62019069991799       -0.52336726945624
H           -4.01316113631172        3.12745256039733        2.42926402006441
H           -4.95462958158094        1.90670781404745        1.58645962599777
H           -5.49578126099616        3.59935909780601        1.57927285980622
H           -3.28577677477482        5.37443980506036        2.24250646481363
H           -3.54953832355667        6.00094096576724        0.57503227336397
H           -4.97664921291624        5.76496070855771        1.77265699470013
H           -0.86228658788849        2.80678782780690        2.71630399468272
