72
 energy: 103.798969264991 xtb: 6.6.1 (8d0f1dd)
N           -1.70469441663553        2.80430416486165        2.13635488460399
C           -1.59867391414637        2.17668907917598        1.05463744034195
C           -2.72853381141366        2.04950788975627        0.06498017018259
C           -3.33271839017021        0.62020860087400        0.22388614058673
C           -4.35550273276040        0.17616087607844       -0.62084895484529
C           -4.90119788577037       -1.09146342130059       -0.51712583144007
O           -5.89658410130096       -1.57657322481034       -1.31014119258856
C           -6.46697343598465       -0.72819612897873       -2.27171792723441
C           -4.42148925788594       -1.99540504788742        0.45854178536531
O           -5.03015929723152       -3.21485939841900        0.48512310944277
C           -4.67180755497796       -4.13498862231371        1.48518230419566
C           -3.39026319400563       -1.57756911047157        1.27492274633909
C           -2.85879347690686       -0.29126870486544        1.15816139593301
C           -2.13049886179527        2.12428344828766       -1.35561156677562
C           -1.21416407610313        0.95039046859153       -1.78201286145844
C            0.11457693165508        0.91922955536663       -1.11385093078182
N            0.70955162887721       -0.20596211386873       -0.60330221558802
C            2.08810248033270       -0.15301655792480       -0.21802207752544
C            3.03922734424200       -0.63570044603086       -1.33436585386241
C            4.46101093116836       -0.50734965674087       -0.88420862139490
C            5.16578454204276        0.66535616809009       -1.08040514589886
C            6.46901512545947        0.79806325664914       -0.61744032906525
C            7.08446491340548       -0.24122077930943        0.05924379609125
O            8.35528955550310       -0.22236061335628        0.55122239135792
C            9.13359325671648        0.92776748252362        0.34424806933838
C            6.36983328754778       -1.44016431885725        0.27608069415443
O            7.05208480064804       -2.40958492719889        0.95140060969259
C            6.42404748175627       -3.64387474537436        1.17357358313834
C            5.07300547513687       -1.55309406927886       -0.19411544146281
C            0.05324927686707       -1.48029898927240       -0.65043491873393
C           -3.71304333945043        3.21269203924644        0.32793012649566
C           -4.62201773501335        2.95905348050614        1.51907139000071
C           -4.02948047540977        5.59775203938378        1.51549195119188
H           -4.73629986411070        0.85657979771447       -1.36532805600241
H           -6.89741504426839        0.16889856263900       -1.81499275981900
H           -7.26289239835941       -1.31034781973154       -2.73721757127320
H           -5.74047902267087       -0.43317242639819       -3.03704936215912
H           -4.84336811813788       -3.73079382551483        2.48717293938881
H           -5.31484776914280       -5.00152023990992        1.33213557424604
H           -3.62643858234814       -4.45016627560866        1.39391324189934
H           -2.99913549145368       -2.24132646286863        2.03289389629839
H           -2.07923900733362       -0.01530337003742        1.85459305553078
H           -2.96070101047750        2.17050800681179       -2.06205280236846
H           -1.57046896240234        3.06070213219731       -1.43447478748948
H           -1.73045020484185        0.00471270465201       -1.63840454830714
H           -1.07921185903448        1.07209321631398       -2.86998598584115
H           -0.66287752536592        1.68853981616924        0.70645462941612
H            0.75173182403179        1.79790069078532       -1.20354914048411
H            2.25224152956482       -0.75864617982269        0.68327513044830
H            2.33826120019850        0.87876465887079        0.03263918044270
H            2.86679376208053       -0.03509177658422       -2.22845732939455
H            2.79985682462193       -1.67444738567476       -1.57186807058316
H            4.70326417375898        1.48366708907463       -1.61044101677354
H            6.99684494013419        1.72154627656003       -0.79509710003567
H            8.69666630578831        1.80728460439908        0.82924308990081
H            9.27468077819952        1.13650066238386       -0.72193134737761
H           10.10014784187754        0.71632253103205        0.79602897942535
H            7.15581413512017       -4.25687263249713        1.69961480909004
H            5.53069824696603       -3.53749502681430        1.79757860398364
H            6.15390784387642       -4.13689218444130        0.23349022542920
H            4.51660931647845       -2.46467082270377       -0.03819315950766
H           -0.09236290838968       -1.83694975723139       -1.67793899220696
H           -0.92467130295179       -1.42065982604139       -0.16593851493402
H            0.65437884212259       -2.21496818261436       -0.11346673197503
H           -4.16345500517067        3.66668858144921       -0.53979653989207
H           -4.02700752931745        3.14939404064628        2.40334030265395
H           -4.96076046472884        1.92100792821374        1.56406189890698
H           -5.49054460844681        3.61923840615199        1.53093611941965
H           -3.34353172368563        5.43185511617364        2.31193537439513
H           -3.59570598343295        6.08785319402385        0.65541374124344
H           -5.04434218654637        5.84156424194419        1.84817938927005
H           -0.86987202093946        2.81334324413265        2.72150662515192
