72
 energy: 69.503711816352 xtb: 6.6.1 (8d0f1dd)
N           -1.69240658314542        2.83692099250342        2.17677591110920
C           -1.60737890579581        2.19402595795918        1.09549879602757
C           -2.73351624193531        2.11879929408162        0.11884284818871
C           -3.34907994484557        0.66988115769578        0.25437804310444
C           -4.35345016504874        0.20427584450402       -0.60649817652787
C           -4.89184691253627       -1.07172384589901       -0.51952088350938
O           -5.88208122135886       -1.55728606330279       -1.32534605601235
C           -6.45309014165274       -0.70291492195666       -2.27904367535696
C           -4.42278105435556       -1.98343019273604        0.45296001340548
O           -5.02778738834925       -3.20866178827469        0.46751241884966
C           -4.67048734269741       -4.12779754794547        1.46814256247776
C           -3.39856438465579       -1.55629427183485        1.27704403329450
C           -2.87548717886937       -0.26247978438792        1.17773147159415
C           -2.15325475724171        2.17771109583346       -1.31825276806843
C           -1.22629434735772        1.00708514576600       -1.76925961761306
C            0.09237307422421        0.97459269006786       -1.08816318065566
N            0.68967835247593       -0.17204008592900       -0.57062317874458
C            2.06733560535221       -0.12862746246954       -0.20284945177904
C            3.01711953789598       -0.61525279961590       -1.32177037895947
C            4.43816799639834       -0.49129530692915       -0.87734184289951
C            5.14652830551255        0.67998205479822       -1.07312905391033
C            6.45086975960747        0.80767587973980       -0.61431303102315
C            7.06530565749817       -0.23491385378262        0.05769080871573
O            8.33865704322717       -0.22069552408356        0.54656241388864
C            9.11922703959124        0.92693189272759        0.33944342383413
C            6.34808573643440       -1.43061550826955        0.27582026617712
O            7.03031073885401       -2.40348973187925        0.94814805002500
C            6.40062560446553       -3.63701686785700        1.16921835980834
C            5.04995979198876       -1.53914317952036       -0.18893759007358
C            0.03042226277269       -1.44207861962983       -0.64183343464151
C           -3.77217582137273        3.38068800923741        0.44441805086603
C           -4.62138450737908        2.92169111369298        1.62267489585882
C           -3.83882983507946        5.23836685323873        1.23104427597811
H           -4.72366754416807        0.87761682702354       -1.35959747307847
H           -6.88856965871656        0.18754458892102       -1.81387343406426
H           -7.24485590403414       -1.28400850046620       -2.75248691897261
H           -5.72448130792793       -0.39803854105356       -3.03797660037637
H           -4.85240633775000       -3.72692309551443        2.47001615570395
H           -5.30786844156024       -4.99667315033043        1.30610270594500
H           -3.62223989857162       -4.43659801141875        1.38539250350764
H           -3.01101278914563       -2.22379219815333        2.03493141434293
H           -2.10005137847585       -0.00429252141336        1.88603193392738
H           -2.98080668516454        2.22331645615414       -2.02993268380935
H           -1.58287850932138        3.10653628728570       -1.39454652212224
H           -1.73294471480649        0.05371900846279       -1.64659031965751
H           -1.09882424250173        1.14390026825797       -2.86122581887475
H           -0.68943985076008        1.66990553707769        0.76162476323403
H            0.72909716752072        1.85094595330900       -1.15896956750382
H            2.22629935418931       -0.73870781631261        0.69621070077004
H            2.32486503629673        0.90126916218378        0.04881504430013
H            2.84274999766765       -0.01363341114897       -2.21443526137755
H            2.77413201174802       -1.65316877306032       -1.55839694883874
H            4.68476685878732        1.50070040221106       -1.59982696927391
H            6.98178527856257        1.73007635008638       -0.79130858313105
H            8.68660039312519        1.80778439960915        0.82660268087458
H            9.25840862278589        1.13738329646575       -0.72693371283604
H           10.08633729819505        0.71087886793165        0.78844016508686
H            7.13352883908312       -4.25297898832025        1.69018835605232
H            5.51018388546095       -3.53097515779116        1.79755871436056
H            6.12510504947871       -4.12692563269533        0.22892335004741
H            4.49175465568297       -2.44938645158908       -0.03214571622294
H           -0.12169946506066       -1.79036151736345       -1.67322361684281
H           -0.94614332575642       -1.38280259587809       -0.15442277161102
H            0.63109426044213       -2.18211967819714       -0.11275940472594
H           -4.30670751532164        3.53124438405134       -0.48532174944085
H           -3.96201104451456        3.08725957112257        2.46689791433808
H           -4.93853008492440        1.88391640388627        1.63562645358763
H           -5.48856218575201        3.56908416079952        1.68897590942201
H           -3.17162092857646        5.26235517518289        2.07711688331179
H           -3.45930584858048        5.83416330756758        0.40705825088029
H           -4.83650947984211        5.60005883176648        1.60681730579146
H           -0.82669177406196        2.78914089337733        2.70868279084967
