72
 energy: 109.290939776676 xtb: 6.6.1 (8d0f1dd)
N           -1.71411828515934        2.78373688075281        2.12054032198107
C           -1.59368785895313        2.17438502478679        1.02985889199513
C           -2.72487898879648        2.00900513511244        0.02913227999408
C           -3.32472217735765        0.59055864463501        0.20777983435316
C           -4.35780614191902        0.15851906718247       -0.62828941050687
C           -4.90556318553795       -1.10545491577215       -0.51603465339876
O           -5.90522623057515       -1.58769536941628       -1.30187723225308
C           -6.47714566086718       -0.74311835168451       -2.26778799691104
C           -4.42512731558509       -2.00565120882859        0.46218771481510
O           -5.03714217976719       -3.22186070007049        0.49663998197515
C           -4.67370930906313       -4.14009780169985        1.49653098711197
C           -3.39057040396838       -1.59187326865925        1.27663301277780
C           -2.85159609212340       -0.31082076632460        1.14821108080662
C           -2.11718012132258        2.09136473203571       -1.38427750832974
C           -1.20886958211665        0.91346310822146       -1.79938509654646
C            0.12354444505188        0.89536684900896       -1.13537097628178
N            0.71634685072376       -0.21453423922480       -0.61403482417625
C            2.10034406392507       -0.16436819530802       -0.22790374942580
C            3.05280092211677       -0.64855249324352       -1.34347857860598
C            4.47460630644424       -0.51789288168187       -0.89079425721702
C            5.17763895579939        0.65576818599771       -1.08671713032088
C            6.47970691879406        0.79061013966702       -0.62156002363615
C            7.09614974576735       -0.24500114125680        0.05935669788119
O            8.36665819005239       -0.22281559873912        0.55321998057025
C            9.14299950854092        0.92930961159076        0.34666931186852
C            6.38188155284520       -1.44597014630658        0.27531346064296
O            7.06460453228736       -2.41184002592438        0.95069373556587
C            6.43894776978832       -3.64816714127930        1.17557317972743
C            5.08672973003988       -1.56211282616885       -0.19794967139772
C            0.06859165066911       -1.49845164811465       -0.65398678959308
C           -3.70200497104451        3.13628450525385        0.25230779877066
C           -4.60825325437777        2.98554150842408        1.45419355215952
C           -4.14454742233995        5.78235624031184        1.68771202674368
H           -4.74308612417803        0.84104552714504       -1.36957591498405
H           -6.90497151883470        0.15761232755233       -1.81622475876860
H           -7.27425616334749       -1.32805744533337       -2.72631504844967
H           -5.75237935784814       -0.45505879178350       -3.03760408805368
H           -4.83781515226355       -3.73319086434941        2.49860751146706
H           -5.32163183102663       -5.00327264134498        1.34971210858477
H           -3.62985917104031       -4.45852345069259        1.39886473344844
H           -3.00105951010677       -2.25532803249390        2.03567393928634
H           -2.06654358810008       -0.02635954811604        1.83466756916115
H           -2.94989422454419        2.13681698288895       -2.08779044338238
H           -1.56121230015226        3.03090198352899       -1.46570986066708
H           -1.72964477777610       -0.02798215038696       -1.63539645172058
H           -1.07197475627022        1.01536789649693       -2.88723518707150
H           -0.65070013635530        1.70412563736735        0.66008234017720
H            0.76562794473946        1.76909137090008       -1.24587212045658
H            2.26665387346460       -0.77431627252793        0.67090716615700
H            2.34966069980621        0.86785600889259        0.02231933801697
H            2.88267627703523       -0.04862300725094       -2.23825673914186
H            2.81717011569031       -1.68826728281975       -1.57863744175408
H            4.71606333435680        1.47372415949783       -1.61842963973619
H            7.00550004861253        1.71490263189206       -0.79946887189925
H            8.70329460061983        1.80750727861989        0.83084269537734
H            9.28562403134745        1.13582950022308       -0.71927702729596
H           10.10868145578247        0.71852220822270        0.80127836598930
H            7.17168609589076       -4.25672691311164        1.70462759204068
H            5.54438751183972       -3.54187678838976        1.79794931050761
H            6.17254368408437       -4.14385634181030        0.23605748624488
H            4.53245267697897       -2.47508354427980       -0.04102044475193
H           -0.06963007336680       -1.86244364346403       -1.67969763682705
H           -0.91108851362936       -1.44483254308412       -0.17305592947544
H            0.67340546095295       -2.22746987927959       -0.11336821432108
H           -4.05812947875307        3.74303884758420       -0.57008374282841
H           -4.03320472004200        3.19927566887764        2.34664001643019
H           -4.96313794506565        1.95723713631622        1.52783445538021
H           -5.46833249326522        3.65687761868183        1.44048141993681
H           -3.45338755008347        5.54491698352564        2.46390279801511
H           -3.68395891055069        6.23227254449065        0.82050747731478
H           -5.16416277878953        6.00864993226528        1.98612984889137
H           -0.89722142807404        2.83251586840065        2.73138616853471
