72
 energy: 102.032335559178 xtb: 6.6.1 (8d0f1dd)
N           -1.76959585729430        2.70608938497924        2.07249327536933
C           -1.62063025419016        2.12105751017186        0.98088788935237
C           -2.72530905071710        1.88536262221943       -0.03654176331947
C           -3.29456469544872        0.48847415904830        0.17499002319213
C           -4.34931251037108        0.08919781512775       -0.64616581511026
C           -4.92273512804811       -1.16033512436253       -0.52094988425583
O           -5.94739125611550       -1.63457760872265       -1.28282683821227
C           -6.50824730031825       -0.79167132553339       -2.25719032013170
C           -4.43943628116082       -2.05128575241707        0.46477596097326
O           -5.06351430455849       -3.26271105415835        0.51610736688431
C           -4.68644834879824       -4.16748442311168        1.52094713553811
C           -3.40511371821852       -1.64534324072627        1.28597990606811
C           -2.83525489869109       -0.38439557437220        1.14075907510477
C           -2.09621413198541        1.99956318702815       -1.44583215872438
C           -1.18013917106200        0.83132856661363       -1.83349719849603
C            0.10766600123211        0.86043350461285       -1.08967511208968
N            0.74586850187182       -0.26249813510039       -0.64306179633744
C            2.12366142935013       -0.19192380949977       -0.25079555967752
C            3.08229058271876       -0.68442212800619       -1.35546568827964
C            4.50195252399146       -0.54492633414664       -0.89461345433148
C            5.20042130373065        0.62956770639610       -1.09815112316173
C            6.49910139448005        0.77390809240121       -0.62991890116591
C            7.11649744647476       -0.25620401080896        0.05631066983697
O            8.38182945873933       -0.22694342282763        0.55716445757340
C            9.15913013908854        0.92536050516044        0.35337130732714
C            6.40902620481481       -1.46109857911036        0.27411917622242
O            7.09514841262515       -2.42092014052010        0.95334341828856
C            6.47502583809898       -3.65956099160804        1.18425951601488
C            5.11640482597722       -1.58563856090098       -0.19906844947682
C            0.11577594574274       -1.55527754936997       -0.66531210553715
C           -3.80944960727324        2.89540611920477        0.10520490562371
C           -4.55197471187870        3.00496733673596        1.37234197951103
C           -4.32990689484864        6.42755461935873        2.09796119571858
H           -4.72442149954249        0.79143389627920       -1.37291489986865
H           -6.92282424008901        0.12031373785087       -1.81555768751097
H           -7.31207158030293       -1.36952461351722       -2.71113696026889
H           -5.77862916327540       -0.52162699731683       -3.02860973582978
H           -4.83638456476482       -3.74768680920770        2.52136925447025
H           -5.33634187142410       -5.03174909752591        1.39281852194565
H           -3.64238847915961       -4.48274336796423        1.41311625357643
H           -3.02854032163868       -2.29990901653807        2.05646270384616
H           -2.03933284546316       -0.09483069481446        1.80989078260096
H           -2.90723135832922        2.05098584244792       -2.17156325468368
H           -1.53777254067397        2.93635201568574       -1.50635258241123
H           -1.71181420934884       -0.10542347711315       -1.66963381407151
H           -0.98930264158268        0.91321557070856       -2.91529151387999
H           -0.64468661424790        1.70971224262861        0.58678790040129
H            0.73602477159437        1.72673644206694       -1.22154464572695
H            2.27211925405512       -0.79683326714487        0.65000843955562
H            2.37325908201205        0.84316941814041       -0.00600110672566
H            2.91392599553418       -0.08619946010057       -2.25254491571380
H            2.85641862749432       -1.72632413031542       -1.58730458669754
H            4.73998174122365        1.44557490357517       -1.63500657275657
H            7.02011671893475        1.70024835675096       -0.81178194724680
H            8.71526427444272        1.80453753194435        0.83268037573195
H            9.30847490555901        1.12952362578120       -0.71225068663325
H           10.12119599834960        0.71162891479160        0.81645180796371
H            7.21065885599442       -4.25716628192404        1.72042729578227
H            5.57671951211403       -3.55532966803383        1.80259241501110
H            6.21490730849051       -4.16374745736128        0.24719625427850
H            4.56712908615829       -2.50160845401577       -0.04353484059582
H           -0.00573276434224       -1.93241576427419       -1.68669792355761
H           -0.86808047210705       -1.51026734358218       -0.19251942674896
H            0.73403467202855       -2.25727133780779       -0.10929123176916
H           -3.80938791985103        3.73275153194793       -0.57387504565142
H           -3.87198218372772        3.31751873595447        2.17726711143360
H           -4.95757740084965        2.03574069693398        1.67086111394433
H           -5.35410441316110        3.73310107610154        1.29382834749280
H           -3.67199962590553        6.02634436038705        2.83511167268944
H           -3.94708496951499        6.72293613895498        1.14682050371980
H           -5.36639636914763        6.55465760336216        2.31846769440155
H           -0.95880545063523        2.82241206945580        2.67179016733166
