72
 energy: -1.416863483995 xtb: 6.6.1 (8d0f1dd)
N           -1.53866767612752        2.80724071981334        2.22388459420102
C           -1.56146756470870        2.17366583111705        1.13771149749362
C           -2.74783944304712        2.10788263524216        0.21511301265717
C           -3.33636216302370        0.67818311916777        0.31428656695982
C           -4.31986149267096        0.24070488462652       -0.57964470577417
C           -4.85814167143398       -1.03381850869684       -0.52661485571469
O           -5.83373562075239       -1.50718920225380       -1.35420962664805
C           -6.41074052239285       -0.63480576707646       -2.29040211272147
C           -4.40484318731679       -1.95227395173788        0.44519301911092
O           -5.00109520043855       -3.17817039185256        0.42475030778056
C           -4.66599929125979       -4.10770360711589        1.42364959650613
C           -3.41605534759238       -1.53952995470524        1.31737228965888
C           -2.89084318644159       -0.24932899186827        1.24858488196847
C           -2.18574283182949        2.27423392723143       -1.22066438893214
C           -1.25364073999688        1.14313720686678       -1.70349351778745
C            0.03170734873813        1.09993731185473       -0.96445798701958
N            0.64543262230359       -0.07233353664809       -0.56095244216760
C            2.01790774464332       -0.05625289927028       -0.16908537942629
C            2.95616264278619       -0.56011376355552       -1.28905157798035
C            4.37989031690573       -0.44839489649521       -0.84886074825308
C            5.09485598520065        0.71748356803746       -1.05078322232064
C            6.40389365565428        0.83265955946764       -0.60573402979854
C            7.01550028431373       -0.21602330173465        0.05764637819047
O            8.29267404834307       -0.21398738730866        0.53252732838862
C            9.08268498620975        0.92786011936897        0.32446594684493
C            6.29106980049524       -1.40867948056646        0.27897716267076
O            6.97357724596876       -2.38878251947435        0.93581717366324
C            6.33876802394272       -3.62084900608009        1.15708223957857
C            4.98807578853690       -1.50532132933731       -0.17033826138185
C           -0.02972655370999       -1.33655610313533       -0.62482891649951
C           -3.85241950756019        3.19414747418726        0.54727375342635
C           -4.53182083626826        2.81513822999343        1.86011614735623
C           -3.50957645357083        4.69919887001029        0.72931623595252
H           -4.67568594780312        0.92636999614471       -1.32977508030185
H           -6.85900024930025        0.23899435591486       -1.80605893779945
H           -7.19247969495798       -1.21237729019459       -2.78260199403527
H           -5.68240202093817       -0.30401694795599       -3.03851350337146
H           -4.87497100232900       -3.71802062070324        2.42544150298822
H           -5.29689890360446       -4.97556025226655        1.23589839666988
H           -3.61431335672196       -4.40883975964411        1.36399842302021
H           -3.05332102075246       -2.21609312429736        2.07868944472429
H           -2.13506877144155        0.01981759716605        1.97315127060240
H           -3.01473922474280        2.34452130602474       -1.92662898302789
H           -1.63314431251214        3.21375062417996       -1.25352826609539
H           -1.77901248564123        0.19035042585413       -1.63412613344021
H           -1.04159222386404        1.33106609371226       -2.76724046722116
H           -0.69372554460968        1.64965780047291        0.69000009238042
H            0.66809270261170        1.96670016875036       -1.00419197969327
H            2.14688886184191       -0.68422981117111        0.72040044606819
H            2.30533512826477        0.96406642911710        0.09379719303236
H            2.78587352557744        0.04480921380945       -2.18055197706882
H            2.70555284349641       -1.59611890754504       -1.52323740450196
H            4.63873932294040        1.54563730213640       -1.57181480875212
H            6.93994968944744        1.75007141732879       -0.78986075920095
H            8.66078796502789        1.80950084498870        0.81901456082707
H            9.21664112577014        1.13979478235381       -0.74187113695828
H           10.04953531170079        0.69655926090603        0.76799755255118
H            7.07609221009328       -4.24188365157770        1.66410613897866
H            5.45722824990175       -3.51373866594302        1.79813272827470
H            6.04853035689923       -4.10240117494018        0.21702161396549
H            4.42600213867174       -2.41304594877265       -0.01229999949716
H           -0.19447613501438       -1.66703352548651       -1.65774404905831
H           -0.99808917469398       -1.27873563582169       -0.12082485277037
H            0.57781198988555       -2.08405990173598       -0.11764376571042
H           -4.56707260726013        3.11415263616935       -0.27927314357043
H           -3.80027270611453        2.95560162817728        2.65011227360572
H           -4.89572854709971        1.79298217654506        1.88560226086537
H           -5.36548275858626        3.49429379075018        2.01274867519617
H           -2.75486063896353        4.83969810697749        1.49635869556135
H           -3.14115401558593        5.10820528288098       -0.21246908811407
H           -4.39415422546954        5.27526848357946        1.03271723970577
H           -0.65774955389961        2.77396818645373        2.73121626459477
