72
 energy: -4.047197916001 xtb: 6.6.1 (8d0f1dd)
N           -1.52361386825231        2.79473923403043        2.22852251253984
C           -1.56066367767030        2.16150427337755        1.14303503425808
C           -2.74836185766655        2.09062431182613        0.22434809320424
C           -3.32939977464704        0.66735403135070        0.31713419697952
C           -4.31420091799653        0.24161645709004       -0.57912050253067
C           -4.85523572736152       -1.03054587337687       -0.52824850074984
O           -5.82920512425771       -1.50142528138947       -1.35791466422846
C           -6.40570049710844       -0.62591140984690       -2.29191849919685
C           -4.40300144045850       -1.94941753286247        0.44424130548032
O           -4.99819144361582       -3.17515228922707        0.41985028055922
C           -4.66511456643194       -4.10537023684817        1.41857067058068
C           -3.41874145359231       -1.54109458025542        1.32330806586465
C           -2.89002600124679       -0.25361141449294        1.25750023521811
C           -2.18926767316547        2.28350056404601       -1.20865226173559
C           -1.25645597951240        1.15703073034071       -1.69233739171534
C            0.02249017387202        1.11111217732699       -0.94082926898100
N            0.64105615499930       -0.06259087407620       -0.56121296499964
C            2.01212684548471       -0.04770175029115       -0.16522877611058
C            2.94864340596021       -0.55337142864254       -1.28528021063445
C            4.37261805659362       -0.44315569253149       -0.84480913893900
C            5.08820456286773        0.72217216912097       -1.04756110276971
C            6.39784876502055        0.83601671533483       -0.60443565214018
C            7.00903944761456       -0.21352584745653        0.05780656706123
O            8.28669883647516       -0.21306023569189        0.53087934717329
C            9.07796014785504        0.92792351257749        0.32265561273107
C            6.28375754842575       -1.40588220284257        0.27966049312107
O            6.96645267123978       -2.38682471399549        0.93438639500910
C            6.33122568503407       -3.61878906663378        1.15579516453300
C            4.98014462521668       -1.50122118313866       -0.16757989188295
C           -0.03753144222946       -1.32445980260402       -0.62329465021371
C           -3.85754148281409        3.15320554456914        0.55781202464063
C           -4.51765846438105        2.80167886212085        1.88815756230561
C           -3.47061892642434        4.64219376964981        0.66867402236131
H           -4.66916141181680        0.93185621057977       -1.32578813821906
H           -6.85539520150836        0.24590016144956       -1.80521631199068
H           -7.18623030611495       -1.20254828239855       -2.78675534407964
H           -5.67723994078196       -0.29183848534475       -3.03857289407860
H           -4.87743292442664       -3.71704140452152        2.42025786392935
H           -5.29479689537699       -4.97334539497842        1.22798461579662
H           -3.61289998851859       -4.40510428193809        1.36143567734470
H           -3.05949308376862       -2.21749955498278        2.08538304988379
H           -2.13879222408524        0.02030565305054        1.98432137091193
H           -3.01854350774311        2.35819544140240       -1.91343502679131
H           -1.63976404854623        3.22527105622051       -1.23493894178327
H           -1.78596951325681        0.20590832402684       -1.63227651649986
H           -1.03063178546191        1.34993641518203       -2.75109352405964
H           -0.69172073542468        1.65027619378021        0.67316556197514
H            0.66034514217785        1.97649097956156       -0.98322812964372
H            2.13728026652860       -0.67724284062321        0.72332081009813
H            2.30346294444278        0.97152059834833        0.09910925561290
H            2.77897078096880        0.05224631838179       -2.17670814502875
H            2.69680406784333       -1.58902505773202       -1.51919562880394
H            4.63275095020930        1.55120028103298       -1.56808625868055
H            6.93448719969624        1.75277431575215       -0.78966535369010
H            8.65758248368309        1.80978470332845        0.81810456884937
H            9.21125792354938        1.13999719443309       -0.74370505143535
H           10.04478692732889        0.69470686686131        0.76543585726460
H            7.06934010265683       -4.24022431392992        1.66097814847882
H            5.45087890939680       -3.51179908071711        1.79865577512059
H            6.03914918774804       -4.09942691587876        0.21581973979105
H            4.41749454003068       -2.40863754939589       -0.00962768528221
H           -0.20426832542245       -1.65152190873148       -1.65644206740218
H           -1.00487799013976       -1.26562148424580       -0.11702906697854
H            0.57059054961909       -2.07291892575710       -0.11912249222143
H           -4.59371181671563        3.06040018454922       -0.24806725670011
H           -3.78325624383926        2.93795063497407        2.67598027393931
H           -4.88678332017134        1.78092575402385        1.91727408619012
H           -5.34870461709454        3.48267742492944        2.05045828149400
H           -2.70279655300500        4.78939270037555        1.42147831667980
H           -3.10691968578104        5.01087599305614       -0.28926619239224
H           -4.33665821572231        5.24627770832350        0.95757705784833
H           -0.63805034881521        2.77344357053899        2.72964956545982
