72
 energy: -5.446920491869 xtb: 6.6.1 (8d0f1dd)
N           -1.50792707943440        2.78257287920612        2.23306961395051
C           -1.55710796009311        2.15312720804950        1.14695702524202
C           -2.74783491048243        2.07456157669705        0.23403645799386
C           -3.32168713698031        0.65702424462263        0.32035892708559
C           -4.30808521742307        0.24332851571005       -0.57825949801027
C           -4.85180421274309       -1.02653395709638       -0.52957308021557
O           -5.82422406654524       -1.49543190815103       -1.36102893739066
C           -6.40074312056492       -0.61785889332329       -2.29347257328571
C           -4.40046908306611       -1.94592221032321        0.44339807811338
O           -4.99503257082315       -3.17124030190371        0.41476836008662
C           -4.66465543886688       -4.10270015745220        1.41287126584323
C           -3.42062011051236       -1.54233840316866        1.32939281312998
C           -2.88835881147928       -0.25754934037810        1.26651408317056
C           -2.19237007562059        2.29283558336113       -1.19693933555479
C           -1.25982709241029        1.16849770296946       -1.67942335491446
C            0.01250006479183        1.12079883249187       -0.91610000653740
N            0.63696872981639       -0.05369884826113       -0.56115867437756
C            2.00670287314269       -0.03913886103099       -0.16163203973363
C            2.94149105953763       -0.54648958905611       -1.28175371601092
C            4.36564355699009       -0.43796714525142       -0.84074413437509
C            5.08184364966252        0.72674983649128       -1.04442274598698
C            6.39219610952473        0.83915944345656       -0.60367278302020
C            7.00300505508210       -0.21129937740026        0.05733041554680
O            8.28115428755717       -0.21231874992955        0.52872762536026
C            9.07338518755655        0.92809058325044        0.32087369990189
C            6.27680549010161       -1.40332525079235        0.27966721484699
O            6.95956223762496       -2.38527224891254        0.93218595445529
C            6.32339132201375       -3.61685830084622        1.15385003478796
C            4.97247834887395       -1.49723468416644       -0.16506680672607
C           -0.04461419631021       -1.31326192858580       -0.62141520266511
C           -3.86294686069082        3.11428487051156        0.57039650152050
C           -4.50559796577901        2.78908921964510        1.91624381459985
C           -3.43245248140424        4.58577208729295        0.60829824191249
H           -4.66342687575791        0.93840854025783       -1.32071196706169
H           -6.85263803467558        0.25201571731083       -1.80519870892324
H           -7.17958802139300       -1.19460273216419       -2.79044476032921
H           -5.67245436272389       -0.28066477883518       -3.03903878314644
H           -4.88063242136548       -3.71608887090778        2.41448341828984
H           -5.29355098197333       -4.97029184645031        1.21871376208795
H           -3.61206526379503       -4.40153094661933        1.35826662228322
H           -3.06507949990670       -2.21835102017644        2.09241573771735
H           -2.14264766737922        0.02154911403162        1.99623930618779
H           -3.02168708652331        2.37215003081832       -1.90075840543915
H           -1.64517637420461        3.23656266916047       -1.21809913870683
H           -1.79378953674466        0.21961313771301       -1.62779543507426
H           -1.01976769388084        1.36447229761935       -2.73303767405363
H           -0.68897145540063        1.65108891097999        0.65637157972765
H            0.65275093785728        1.98421047539635       -0.96076169030613
H            2.12859113229525       -0.66988712088342        0.72604025943414
H            2.30182419299520        0.97911404886674        0.10406902390200
H            2.77269901142293        0.05999615460365       -2.17309969430932
H            2.68837209527670       -1.58170124261477       -1.51562396718316
H            4.62706185238471        1.55647443553540       -1.56479140032809
H            6.92953851969401        1.75509278542254       -0.79036751960340
H            8.65415299196817        1.80994673088585        0.81733912265785
H            9.20626200506197        1.14067743578700       -0.74541806941399
H           10.04011905643623        0.69315629956129        0.76315330631405
H            7.06200339535929       -4.23886670298803        1.65739090612723
H            5.44419863971165       -3.50957589200479        1.79844603156538
H            6.02930309098752       -4.09667585263123        0.21403413438810
H            4.40921641470135       -2.40437730429876       -0.00761595868720
H           -0.21272115957580       -1.63711229220197       -1.65475901213975
H           -1.01148078807586       -1.25355319960227       -0.11358283428021
H            0.56427483071366       -2.06210964026635       -0.11965742429456
H           -4.61918918782433        3.00806387774012       -0.21528722065214
H           -3.76987514713928        2.92090604822309        2.70326319270916
H           -4.87967056077416        1.76953478394311        1.94823963312745
H           -5.33459196526717        3.47115290263723        2.08726295084943
H           -2.65192093637754        4.73969525273919        1.34705126465459
H           -3.07339161578354        4.91308373675692       -0.36470965492125
H           -4.27989939661445        5.21676840055391        0.88112270128809
H           -0.61766640786667        2.77127282380330        2.72719814910450
