72
 energy: 2.446479854843 xtb: 6.6.1 (8d0f1dd)
N           -1.55482152322414        2.81962139732744        2.22011017667506
C           -1.56358125438502        2.18737251330953        1.13271987043856
C           -2.74697883529456        2.12481524413214        0.20670033349399
C           -3.34320436744779        0.68754228000379        0.31146589631168
C           -4.32510991071204        0.23888282427324       -0.58055227403177
C           -4.86120698210345       -1.03768888937105       -0.52509193849518
O           -5.83869849319351       -1.51294106607365       -1.35065893862048
C           -6.41574574138045       -0.64310322760984       -2.28884692046261
C           -4.40712170608809       -1.95568626232343        0.44625948571054
O           -5.00441685254737       -3.18172978677171        0.42998296406358
C           -4.66652091643675       -4.11009854706359        1.42923220982251
C           -3.41341082053375       -1.53934146207864        1.31148658750879
C           -2.89110030762491       -0.24676113442028        1.23939246831445
C           -2.18272501895858        2.26467956886969       -1.23224338486151
C           -1.25116175483262        1.12896311988114       -1.71451499037469
C            0.04024998391723        1.08839912675595       -0.98783192532385
N            0.64954733629974       -0.08209658799922       -0.56152286864530
C            2.02333715062110       -0.06468774207385       -0.17347632991791
C            2.96355077924129       -0.56697441624387       -1.29293996351755
C            4.38695444238015       -0.45370983193889       -0.85258797939781
C            5.10120919346537        0.71278120716682       -1.05367808677266
C            6.40963244651112        0.82942148249033       -0.60674581942205
C            7.02168724742669       -0.21840128583073        0.05773495029409
O            8.29842773904284       -0.21484291164552        0.53432334889952
C            9.08731439817202        0.92772242888664        0.32627992895702
C            6.29816503613509       -1.41137248913581        0.27863650373024
O            6.98067156994272       -2.39056247294004        0.93749345045064
C            6.34656736029410       -3.62285134823023        1.15872008027992
C            4.99578598883363       -1.50943379231616       -0.17273293966370
C           -0.02245899855993       -1.34841410576692       -0.62709506534041
C           -3.84821273584761        3.23702524672643        0.53957002367725
C           -4.54572276690560        2.82848526497366        1.83281124780406
C           -3.54888481278844        4.75701954546498        0.79003192101444
H           -4.68185147363149        0.92022666425085       -1.33392742936132
H           -6.86231973414114        0.23270740704218       -1.80665984174995
H           -7.19886851838657       -1.22105355241238       -2.77877580559765
H           -5.68737903661336       -0.31552336180686       -3.03825018500469
H           -4.87197226087384       -3.71882099782919        2.43106943057809
H           -5.29819262649089       -4.97824388301183        1.24487126399576
H           -3.61520403483790       -4.41206534588134        1.36687551758663
H           -3.04767077846447       -2.21572577189292        2.07228114370592
H           -2.13116645664743        0.01806902535061        1.96179248533163
H           -3.01136036465441        2.33044935615821       -1.93948602654523
H           -1.62676603150299        3.20172616185347       -1.27205556308959
H           -1.77219255746970        0.17460456279750       -1.63646182429554
H           -1.05231308179924        1.31165574377774       -2.78290316642175
H           -0.69583806944714        1.65153835872108        0.70671550469880
H            0.67594376643438        1.95598817869871       -1.02488838989125
H            2.15604658571685       -0.69095410433939        0.71701885668496
H            2.30711017571555        0.95665617036762        0.08808117291456
H            2.79285251391690        0.03720224830446       -2.18461368297492
H            2.71411837268409       -1.60332316890756       -1.52732522714420
H            4.64440400954711        1.54004047082661       -1.57528038828862
H            6.94504662028961        1.74751466166670       -0.78980056749957
H            8.66409747838618        1.80926509927098        0.81988727764028
H            9.22188741675004        1.13938974449808       -0.74006719866435
H           10.05418124188833        0.69821858431763        0.77051106587790
H            7.08332741291549       -4.24326888296119        1.66751580806479
H            5.46388882751762       -3.51583718289565        1.79807854615117
H            6.05820170392530       -4.10542026302305        0.21861814652385
H            4.43431772010765       -2.41750125470936       -0.01470479087718
H           -0.18558641136452       -1.68197803013820       -1.65972641821603
H           -0.99173208898647       -1.29135569511404       -0.12504214759579
H            0.58446639655394       -2.09511252841396       -0.11709747754527
H           -4.53940808828013        3.16839841501168       -0.30828128350432
H           -3.81700264192768        2.97264228120094        2.62486724074392
H           -4.90363683166820        1.80457587014455        1.85406985588963
H           -5.38246748582787        3.50475761229836        1.97582941030569
H           -2.80635411544054        4.89003466692956        1.56998764289713
H           -3.17694391549396        5.20583705192759       -0.13451675835714
H           -4.45046166124032        5.30582746232715        1.10773363827535
H           -0.67763807151163        2.77528916155915        2.73167995511517
