72
 energy: 54.293280413196 xtb: 6.6.1 (8d0f1dd)
N           -1.67404724177708        2.84708502115457        2.18784658117611
C           -1.60503009263504        2.20133325133994        1.10698475015668
C           -2.73404532268919        2.12954923532505        0.13493005096282
C           -3.35185590509408        0.67934443187372        0.26499694220342
C           -4.35085669855476        0.21157846267576       -0.60163864253657
C           -4.88682477767096       -1.06635063045982       -0.51916262474851
O           -5.87494731506782       -1.55091606922811       -1.32912246479770
C           -6.44736581097758       -0.69440940679771       -2.28030916747695
C           -4.42113318271351       -1.97911469891362        0.45254824330892
O           -5.02482762887292       -3.20483693324865        0.46164528578410
C           -4.67009541282034       -4.12537164507538        1.46236993486289
C           -3.40057643134775       -1.55192272788567        1.28151010390598
C           -2.87957648584364       -0.25705394222744        1.18665590267179
C           -2.15866241144509        2.19312937012144       -1.30603242851486
C           -1.23106376148179        1.02646223190941       -1.76512958819987
C            0.08572472973039        0.99280318713032       -1.08305253387435
N            0.68233848303101       -0.15701755853605       -0.56807885763710
C            2.06017334810456       -0.11901001018007       -0.19877993723047
C            3.00927337457333       -0.60832477614813       -1.31737366023118
C            4.43059511936944       -0.48588855713775       -0.87390162326735
C            5.13996186792493        0.68466565453262       -1.07042022280660
C            6.44485665651514        0.81069038803772       -0.61325452889958
C            7.05904248370156       -0.23264653731467        0.05758941310091
O            8.33294160099410       -0.21985628026712        0.54485897495328
C            9.11464280975036        0.92711081502682        0.33755507865346
C            6.34093935871368       -1.42771946026712        0.27612394217644
O            7.02317847081735       -2.40153524238485        0.94678030424761
C            6.39284356288434       -3.63484072207111        1.16782103572997
C            5.04221637061696       -1.53475923630794       -0.18672038033504
C            0.02267216292554       -1.42775360622858       -0.63981467613260
C           -3.79142232177231        3.40736034212888        0.46924309591734
C           -4.61485232210232        2.91052488932565        1.65419847875071
C           -3.78929307142766        5.13899594054182        1.15576584155017
H           -4.71825373079431        0.88363224414425       -1.35675286647883
H           -6.88439437548566        0.19386929723851       -1.81243750428890
H           -7.23804898728427       -1.27486304764286       -2.75638129033010
H           -5.71869892945209       -0.38616930581950       -3.03771247815854
H           -4.85533348785528       -3.72583456492332        2.46434122030105
H           -5.30650779969976       -4.99437148301862        1.29715848168887
H           -3.62129434721636       -4.43310362251214        1.38282997877853
H           -3.01565590534180       -2.22157784624943        2.03970460686038
H           -2.10522642655711        0.00004221468724        1.89665496537935
H           -2.98643238992243        2.23969789120061       -2.01728756169075
H           -1.58859224712935        3.12142056256456       -1.37864715317058
H           -1.73779994869654        0.07193096322317       -1.64637303453332
H           -1.09790424919474        1.17210128391839       -2.85563116124912
H           -0.69456172860499        1.66416557701596        0.78057438571821
H            0.72149764430201        1.86836048594717       -1.14127071147046
H            2.21586830529305       -0.73166118209425        0.69906183976816
H            2.32166912182489        0.90947692516569        0.05436751426067
H            2.83541887321824       -0.00653024190632       -2.20977390117697
H            2.76543038519174       -1.64604444260787       -1.55383091121479
H            4.67878267750599        1.50625668419428       -1.59627328990289
H            6.97644691710668        1.73258618829578       -0.79070252790933
H            8.68337615506540        1.80808116088902        0.82563331591355
H            9.25316553114512        1.13768241641345       -0.72882420459049
H           10.08172950884670        0.70911935786330        0.78586911877748
H            7.12617289476105       -4.25156530178199        1.68714567956923
H            5.50342025092015       -3.52862596674703        1.79754025700503
H            6.11552782272884       -4.12368797104719        0.22752363466940
H            4.48362022626888       -2.44466878425620       -0.02966889436747
H           -0.13093947272269       -1.77470994592968       -1.67132636262155
H           -0.95294018168912       -1.36955248534964       -0.15054620742822
H            0.62423682373011       -2.16887945099489       -0.11314829313641
H           -4.34433868173712        3.48483181749922       -0.46142045773959
H           -3.93440653380962        3.07272130952297        2.48260512950951
H           -4.93397110151271        1.87473336516867        1.66406817235210
H           -5.47735336696149        3.55930292651854        1.73558497473281
H           -3.11552098405737        5.20306663044371        1.99992977739358
H           -3.41657751595453        5.74966834042023        0.32986186014812
H           -4.77544928261989        5.53460162887133        1.54006759454851
H           -0.80462781916963        2.78482752461225        2.70970156000554
