72
 energy: 107.465476921576 xtb: 6.6.1 (8d0f1dd)
N           -1.70458740372957        2.79155735033574        2.12796579283934
C           -1.59504318696900        2.17417004997513        1.04146488610522
C           -2.72677123932394        2.02975071740876        0.04656161875769
C           -3.32885955474988        0.60559433041288        0.21575326769026
C           -4.35609907019285        0.16735574074142       -0.62476806603127
C           -4.90259439290975       -1.09822375035099       -0.51642622925505
O           -5.89921123977685       -1.58129924629919       -1.30580359817414
C           -6.47141774738039       -0.73558539059584       -2.26948545462015
C           -4.42288227608958       -2.00016255193998        0.46068280458741
O           -5.03232534773795       -3.21775590980826        0.49048919162781
C           -4.67251949355447       -4.13739660663169        1.49081823033268
C           -3.38954470928498       -1.58480294314015        1.27536115341286
C           -2.85489524555453       -0.30092308091169        1.15285650633384
C           -2.12392415597707        2.10799444227133       -1.37071402286423
C           -1.21164317166399        0.93264992616128       -1.79420002778940
C            0.11873867114253        0.90695853974476       -1.12706486773657
N            0.71191516914031       -0.20973882888492       -0.61042695603004
C            2.09304177583992       -0.15916497570650       -0.22314749065823
C            3.04559340107859       -0.64205917449702       -1.33864354847871
C            4.46762107813968       -0.51257169877010       -0.88654762687623
C            5.17159546602939        0.66051306075369       -1.08307468342158
C            6.47433144312776        0.79447121237078       -0.61911780716915
C            7.09039110054445       -0.24307972065205        0.05953066077100
O            8.36085841921018       -0.22225552533623        0.55241586518132
C            9.13828487155339        0.92877189440968        0.34541338207777
C            6.37648204454009       -1.44324042652376        0.27613306176983
O            7.05980134956768       -2.41137957028208        0.95166855282679
C            6.43177380999594       -3.64594833318331        1.17478717584616
C            5.08019870118179       -1.55766219489292       -0.19567333309318
C            0.06069342036274       -1.48982617790370       -0.65239611466046
C           -3.70621476375664        3.17571802049881        0.28918824552384
C           -4.61726683002516        2.97184476904460        1.48536503071020
C           -4.08749623210777        5.69388408187552        1.60404142747489
H           -4.73967010135705        0.84848661224631       -1.36772866048121
H           -6.90087214449000        0.16328637136156       -1.81549790538415
H           -7.26809263652190       -1.31915277943136       -2.73131578021484
H           -5.74614083286707       -0.44399631616089       -3.03727578287945
H           -4.84046401547755       -3.73224251894746        2.49297715701524
H           -5.31825705301095       -5.00196368252444        1.34093957625070
H           -3.62810854013327       -4.45465429802863        1.39636596611341
H           -2.99839766377847       -2.24864834747448        2.03332931673873
H           -2.07281652709559       -0.02057613081390        1.84436238715647
H           -2.95571140481998        2.15399907981989       -2.07510218815269
H           -1.56617824349060        3.04627050769384       -1.45053319343632
H           -1.73025054032182       -0.01076388850358       -1.63777830437972
H           -1.07703879778024        1.04417115743591       -2.88248850000449
H           -0.65577522431736        1.69624394991592        0.68301014515441
H            0.75901823361566        1.78320018543301       -1.22413389609999
H            2.25911272267311       -0.76541676526410        0.67761688725579
H            2.34206439403987        0.87262252038587        0.02715943558596
H            2.87478266750208       -0.04158267524228       -2.23317060981179
H            2.80822581196786       -1.68125201192245       -1.57538657868630
H            4.70938759395164        1.47839307774206       -1.61425923056589
H            7.00093662916423        1.71816487438014       -0.79757274036174
H            8.69995225073533        1.80749800669237        0.83007917305184
H            9.28008630239651        1.13615106663999       -0.72065256226586
H           10.10458111057552        0.71797739227956        0.79839898744392
H            7.16372006851974       -4.25699395210205        1.70230207422273
H            5.53766714285747       -3.53945863599588        1.79783260277811
H            6.16330289130003       -4.14019814432840        0.23490035984072
H            4.52458695389363       -2.46976904048787       -0.03955758908986
H           -0.08191922827387       -1.85052369929866       -1.67889174821873
H           -0.91787418177591       -1.43261040094897       -0.16932613575398
H            0.66242517515377       -2.22405676885170       -0.11372010038157
H           -4.11666438500883        3.70936780757367       -0.55748482992547
H           -4.03559104722628        3.17372477757123        2.37555700872978
H           -4.96224240163772        1.93666907190675        1.54289887834628
H           -5.48299981324556        3.63693025552521        1.48336598087338
H           -3.39844320907071        5.48743427701296        2.38878728498224
H           -3.64084743277497        6.15733878606192        0.73909946540911
H           -5.10569548585884        5.92375487962025        1.91908498366153
H           -0.88032455577222        2.82350514407570        2.72718762546782
