72
 energy: 104.237812060717 xtb: 6.6.1 (8d0f1dd)
N           -1.76169965068639        2.69415887127848        2.09000507275508
C           -1.59518208766193        2.12251741319334        0.99203278700103
C           -2.70558725936805        1.90854697299981       -0.02739192830731
C           -3.30097000075560        0.51420697745526        0.17895616911497
C           -4.35315825142082        0.10972641386106       -0.64321425790978
C           -4.92078073037064       -1.14234195573620       -0.51638957315873
O           -5.93633557567668       -1.61992886271548       -1.28514051259051
C           -6.50513655434586       -0.78302202680113       -2.26039145176963
C           -4.43641436454487       -2.03650387854791        0.46542524310049
O           -5.05663165756972       -3.24914959963691        0.51482339087907
C           -4.68269397596433       -4.15532066798391        1.51965216331710
C           -3.40134267751757       -1.62991177589031        1.28469820842551
C           -2.83873907106312       -0.36496095223045        1.13907964357916
C           -2.08807157711289        2.01430583941961       -1.43842760362311
C           -1.19265744201869        0.82798150793721       -1.82940939851730
C            0.11989200010285        0.84741600119396       -1.13889514844888
N            0.73534416423677       -0.25750268435398       -0.62894550199088
C            2.11824179652378       -0.18808147075194       -0.25618427112064
C            3.07934788535997       -0.68202914023645       -1.35721365497892
C            4.49901707647375       -0.54224186123603       -0.89319747809356
C            5.20121782519176        0.63002261987387       -1.09863328350039
C            6.50167397451678        0.77120800541535       -0.63250054182064
C            7.11946301968835       -0.25732877097107        0.05353365787404
O            8.38357579242834       -0.22649840467687        0.55756336120619
C            9.16219071107308        0.92580581437825        0.35483725489463
C            6.41121802758371       -1.46155351537568        0.27016413918410
O            7.09761438466396       -2.42141360084012        0.95193586365311
C            6.47625135795285       -3.66007792932259        1.18271976130137
C            5.11791623410700       -1.58423681239000       -0.20167057526064
C            0.10880144852978       -1.55176917707721       -0.66592039285796
C           -3.75214965432219        2.94915558502859        0.12642258066511
C           -4.54068067275263        3.03759405076036        1.36550466055094
C           -4.37555672203052        6.18946467353894        2.04355963436806
H           -4.73547593621142        0.80418510044189       -1.37434329749431
H           -6.92625172821942        0.12691392993114       -1.82066062137922
H           -7.30502467902540       -1.37443479834113       -2.70338547629515
H           -5.78180666288849       -0.51177069684862       -3.03764412529091
H           -4.83047702378253       -3.73848804615299        2.52187922857515
H           -5.33670688470149       -5.01565794692396        1.38990894000463
H           -3.63991963630999       -4.47549496171723        1.41092774346563
H           -3.02252483448550       -2.28860328059714        2.05128346883429
H           -2.04195415354142       -0.07151803746497        1.80484792732939
H           -2.91438287023263        2.06286232723597       -2.14641562609367
H           -1.53010339436367        2.95091310287037       -1.52320509796508
H           -1.73202851611314       -0.10251713713648       -1.64938768385460
H           -1.02320492713882        0.90292793216824       -2.91326824765383
H           -0.61586220123512        1.73538347588658        0.60401246327078
H            0.73369657181139        1.72500005163569       -1.23710176697637
H            2.26213979958925       -0.79506290319183        0.64308820517970
H            2.37739278832463        0.84528092101923       -0.00823470713651
H            2.91863357386702       -0.08789184286638       -2.25889927286062
H            2.85751708531203       -1.72466133846221       -1.59187189328436
H            4.74489708614186        1.44704064344391       -1.63711619482574
H            7.02489108874645        1.69669497903322       -0.81259596663258
H            8.71859131988547        1.80432353856609        0.83495897532043
H            9.31215786584460        1.13037284844564       -0.71071104692221
H           10.12399772969049        0.71269047966835        0.81813693688104
H            7.21125585651946       -4.25772007973713        1.71930125795022
H            5.57825630198534       -3.55493304281524        1.80089245925454
H            6.21886629338760       -4.16374218541402        0.24485788608369
H            4.57029032200650       -2.50150979740945       -0.04674401172997
H           -0.00317359368475       -1.92609835136377       -1.68973794242659
H           -0.87736845394231       -1.51119843012245       -0.19862987867506
H            0.73275834344563       -2.24713384078416       -0.10882006240896
H           -3.89723826480239        3.66547856191681       -0.66534758668869
H           -3.91890517535458        3.33258974666237        2.21884624660093
H           -4.94105382603945        2.05513045088003        1.62808041891181
H           -5.36117829364629        3.74307323760952        1.28375537118042
H           -3.68043521372989        5.89449121327613        2.80456898772287
H           -3.91661569209151        6.65895967139759        1.18530227589573
H           -5.39350400157758        6.41340552296517        2.31837653005030
H           -0.95044654732449        2.81487592978690        2.69084205582329
