72
 energy: 7.558925913886 xtb: 6.6.1 (8d0f1dd)
N           -1.57162984651925        2.83165657666489        2.21611302807059
C           -1.56657607030925        2.19974077378564        1.12807500480343
C           -2.74581487359789        2.13992866793214        0.19687068080466
C           -3.35009579555376        0.69459190701578        0.30690483510044
C           -4.33079640949329        0.23630667833361       -0.58240532666960
C           -4.86436684046089       -1.04221075173415       -0.52388216862394
O           -5.84379877518777       -1.51909366172354       -1.34736166313510
C           -6.42067852316223       -0.65139628379249       -2.28734806877211
C           -4.40949390519952       -1.95925451434244        0.44744160989676
O           -5.00771963158591       -3.18547644029192        0.43532320536749
C           -4.66710668731944       -4.11262788612926        1.43495220929321
C           -3.41080186005874       -1.53957167361455        1.30573861205651
C           -2.89153263195115       -0.24489782952182        1.23000331578690
C           -2.17988084198067        2.25559269899286       -1.24435603242835
C           -1.24880664854595        1.11483485652887       -1.72520929781512
C            0.04858272720166        1.07595071167371       -1.01071805222757
N            0.65386206210896       -0.09216016835183       -0.56224618600698
C            2.02887827148207       -0.07320536502090       -0.17775055607925
C            2.97094150595183       -0.57381071325787       -1.29678830028113
C            4.39409098503825       -0.45911905644946       -0.85636682866841
C            5.10766756810707        0.70796819057751       -1.05671259202219
C            6.41548903307760        0.82606257159136       -0.60789669035552
C            7.02795102023582       -0.22089675256092        0.05773670921391
O            8.30421962330349       -0.21575022058609        0.53610753284000
C            9.09196851906951        0.92756055532417        0.32810642206040
C            6.30533651887022       -1.41417489303453        0.27822289999041
O            6.98782140541466       -2.39241549955469        0.93915954551913
C            6.35443913307334       -3.62492932106212        1.16036669764516
C            5.00355405924930       -1.51366632064061       -0.17519361468874
C           -0.01505025841165       -1.36045115626318       -0.62924674663112
C           -3.84372399928808        3.28113111261591        0.53211449727173
C           -4.55960208563759        2.84207824799669        1.80498912516631
C           -3.58777963894315        4.81612180113909        0.85028261634257
H           -4.68830289103678        0.91377006073722       -1.33853849812851
H           -6.86545240797299        0.22640751567520       -1.80717260776379
H           -7.20529438641467       -1.22952590529123       -2.77501073554922
H           -5.69237653152286       -0.32688351108592       -3.03808834560529
H           -4.86904724354783       -3.71976834644034        2.43682138743857
H           -5.29969405128175       -4.98090379676699        1.25390658962815
H           -3.61621871904444       -4.41566356144517        1.36992134149630
H           -3.04194667334445       -2.21590872837827        2.06588056927307
H           -2.12740192982759        0.01650708590748        1.94994015903431
H           -3.00838700224046        2.31665890623723       -1.95255285438234
H           -1.62085261806328        3.19030689140588       -1.29100681193432
H           -1.76623105900502        0.15949075978694       -1.63797280441294
H           -1.06287601034198        1.29222651003002       -2.79807348672024
H           -0.69755165065149        1.65318883689387        0.72425917907413
H            0.68337364102000        1.94491996274279       -1.04537189776064
H            2.16535276071766       -0.69773085072247        0.71379670665860
H            2.30907209415537        0.94913577853031        0.08247277358882
H            2.79976438416031        0.02969574379519       -2.18860196271096
H            2.72254958553622       -1.61046587682819       -1.53137313181003
H            4.65018861835959        1.53434228112330       -1.57888518529197
H            6.95027010637124        1.74484798614185       -0.78981721097976
H            8.66743618557838        1.80901800015085        0.82076755150510
H            9.22718527206896        1.13895493722238       -0.73824608163013
H           10.05885319019106        0.69989318053446        0.77303167484443
H            7.09063267785680       -4.24472814591141        1.67093651786027
H            5.47062437885739       -3.51800505072592        1.79802952749111
H            6.06796210128469       -4.10849987865056        0.22021561944791
H            4.44264989039617       -2.42204067901896       -0.01707521246272
H           -0.17657622471784       -1.69685030780246       -1.66164390833187
H           -0.98518854980801       -1.30411214788766       -0.12911257843945
H            0.59126261290406       -2.10635991091301       -0.11653653470445
H           -4.51005784398595        3.22372306906618       -0.33611953687538
H           -3.83456078011654        2.98969777645803        2.59999152510901
H           -4.91169122318759        1.81655024626524        1.82249387949298
H           -5.39980191740381        3.51433809093943        1.93842086998543
H           -2.85733202825757        4.94058038950054        1.64271877346993
H           -3.21325801751296        5.30006600347599       -0.05785145460521
H           -4.50664102679976        5.33611777538670        1.18232390020730
H           -0.69726331324554        2.77685591691058        2.73028966730061
