72
 energy: 13.999943975512 xtb: 6.6.1 (8d0f1dd)
N           -1.59040363933630        2.83926275712951        2.21297196217634
C           -1.57578310781417        2.20299904213222        1.12694219037133
C           -2.74482518977983        2.14876346433100        0.18659912615517
C           -3.35458926358590        0.69660641549420        0.30006132621776
C           -4.33622613132578        0.23259666758476       -0.58540052679454
C           -4.86795275929350       -1.04716011450832       -0.52276289538758
O           -5.84913615472510       -1.52574205634070       -1.34395150522720
C           -6.42561755107185       -0.66005404201214       -2.28578689065446
C           -4.41142487116493       -1.96300010557359        0.44860448631489
O           -5.01082327514416       -3.18931260906418        0.44047385973439
C           -4.66819882434689       -4.11536727804203        1.44052075963763
C           -3.40761643853273       -1.54102113807438        1.30046026799310
C           -2.89115068205562       -0.24470893075317        1.22078954538480
C           -2.17709172121901        2.24645072420169       -1.25577295420492
C           -1.24697506556892        1.09986215894745       -1.73437807091139
C            0.05646627716960        1.06228555656545       -1.03280825025992
N            0.65828123801031       -0.10247846972716       -0.56311348685248
C            2.03457902414898       -0.08193740515221       -0.18201027669453
C            2.97853325644464       -0.58078413609706       -1.30072451301740
C            4.40148845957958       -0.46466484881424       -0.86014182710977
C            5.11437747865879        0.70301790090031       -1.05973675090391
C            6.42158091289966        0.82259058841006       -0.60910168107738
C            7.03443910788856       -0.22358320966910        0.05754721690832
O            8.31025904865897       -0.21676375752761        0.53778964589906
C            9.09673743965024        0.92737591225476        0.32987000784227
C            6.31271283050571       -1.41716642676717        0.27762052679348
O            6.99517148984415       -2.39446841649464        0.94063874445373
C            6.36241999704340       -3.62716725648180        1.16188414430541
C            5.01154409931490       -1.51807875140508       -0.17778474287140
C           -0.00733084422188       -1.37283910618601       -0.63132286749053
C           -3.84256355666948        3.32602534648736        0.52599970471603
C           -4.57388313649347        2.85544292560755        1.77663337145240
C           -3.62839380966299        4.87683764464503        0.90934263913196
H           -4.69479251681919        0.90729637283980       -1.34306403875607
H           -6.86837233429946        0.21985145793853       -1.80762328554307
H           -7.21189629969374       -1.23826988079998       -2.77089408551738
H           -5.69756345742532       -0.33870036247190       -3.03814459055833
H           -4.86662679365878       -3.72074288454592        2.44235660080493
H           -5.30228809864054       -4.98330708786732        1.26276655563493
H           -3.61794431895489       -4.42025445670058        1.37293617798177
H           -3.03548956724020       -2.21694143448300        2.05959901863694
H           -2.12353032930081        0.01448819384198        1.93810191029894
H           -3.00506702153241        2.30335164881400       -1.96540808184988
H           -1.61457351237384        3.17868718872994       -1.30930106824629
H           -1.76126413812858        0.14415570969985       -1.63846958660221
H           -1.07323946776346        1.27103923243629       -2.81168055636836
H           -0.70081394311809        1.65350344099804        0.74297270643698
H            0.68994121633354        1.93333243251804       -1.06542914330175
H            2.17459953981424       -0.70463766065411        0.71069449786953
H            2.31137985422793        0.94135706069580        0.07694957090050
H            2.80700011584248        0.02209407609561       -2.19279963001259
H            2.73121747958441       -1.61771314006620       -1.53556876656971
H            4.65623403460335        1.52849184751313       -1.58260606074167
H            6.95572788587759        1.74205586133741       -0.78984738849858
H            8.67083798643961        1.80874872975106        0.82158038508769
H            9.23258074865571        1.13855019286466       -0.73648934110559
H           10.06370550481049        0.70168405290786        0.77546952343672
H            7.09795837226671       -4.24640311557487        1.67427843206368
H            5.47744988331136       -3.52025023615909        1.79787235053735
H            6.07778549352044       -4.11175206834262        0.22168758741187
H            4.45118133017828       -2.42680078818078       -0.01983269392368
H           -0.16737364962997       -1.71189962050927       -1.66346512911601
H           -0.97829079181918       -1.31720543927227       -0.13298165650535
H            0.59848076918785       -2.11792024018979       -0.11606311360806
H           -4.48010298784939        3.27801441395050       -0.36267848784824
H           -3.85258061246820        3.00658120226882        2.57426537846713
H           -4.91860613794966        1.82799415850266        1.79152839849515
H           -5.41781472324472        3.52264381361862        1.90010168840961
H           -2.90929777917753        4.99307268823957        1.71336138998814
H           -3.25285620411154        5.39241410710927        0.01788262394988
H           -4.56365098655907        5.36725457857163        1.25773406806117
H           -0.71565788079354        2.77678527773211        2.72511528790247
