72
 energy: 41.536085837801 xtb: 6.6.1 (8d0f1dd)
N           -1.65570769368930        2.84812187616702        2.19796144720621
C           -1.60225496321673        2.20233468407483        1.11674256989534
C           -2.73713276782688        2.13830127601532        0.14808540199610
C           -3.35456998983671        0.68503022216283        0.27551780511118
C           -4.34842645627363        0.21792698882474       -0.59701939218500
C           -4.88195448931091       -1.06144673849100       -0.51968400546102
O           -5.86818567154406       -1.54492110759881       -1.33283860210147
C           -6.44204238659511       -0.68655914901628       -2.28182727940322
C           -4.41883112872435       -1.97507379444159        0.45172967437257
O           -5.02124534827600       -3.20121792481113        0.45577247350860
C           -4.66964711330916       -4.12326782474099        1.45644015839934
C           -3.40260398667318       -1.54889924617532        1.28647942125660
C           -2.88400499465631       -0.25303840583161        1.19611163126045
C           -2.16292947981231        2.20725566827993       -1.29392103869745
C           -1.23537510641740        1.04524646379892       -1.76111401390495
C            0.07944236848613        1.01065218525464       -1.07803010521839
N            0.67510871268780       -0.14190925212653       -0.56641719457750
C            2.05303462126191       -0.10919994478216       -0.19451664268517
C            3.00119300780152       -0.60098299881706       -1.31299658189628
C            4.42297024860860       -0.48013263341965       -0.87054676965890
C            5.13338262324055        0.68962232519757       -1.06777659922669
C            6.43885578975153        0.81390796354939       -0.61219563751736
C            7.05267213479989       -0.23017210392761        0.05756544301216
O            8.32705611114405       -0.21894884871815        0.54315907811094
C            9.10995982572612        0.92730950743361        0.33570251353064
C            6.33359526747259       -1.42472621371383        0.27646111514737
O            7.01584594076473       -2.39945568373568        0.94532856348743
C            6.38497164383631       -3.63263621136573        1.16637690213852
C            5.03424505060404       -1.53012631224813       -0.18451793951762
C            0.01460074625832       -1.41331325416718       -0.63780680264105
C           -3.80831762741217        3.40590782967838        0.48553448739629
C           -4.60517409563867        2.89711614032258        1.68503482764805
C           -3.74390209097374        5.06518897923804        1.08769165927274
H           -4.71355762359327        0.89027840973758       -1.35263898674231
H           -6.88093477914254        0.19948595897603       -1.81150541265372
H           -7.23143771686480       -1.26681330095014       -2.76018161162135
H           -5.71358929750708       -0.37488657001867       -3.03797112100189
H           -4.85850221063199       -3.72497482112753        2.45839563743755
H           -5.30535569330218       -4.99205054000462        1.28797990936212
H           -3.62038948813752       -4.43016872470511        1.38035223472314
H           -3.02024627027427       -2.22079163267364        2.04433407403232
H           -2.11087867409269        0.00372481194381        1.90771700005176
H           -2.99062050949199        2.25629121259841       -2.00521846330928
H           -1.59336605573943        3.13553157912205       -1.36273275496869
H           -1.74291298027674        0.08981186023355       -1.64599915540403
H           -1.09483483076683        1.19771404208649       -2.84885928643436
H           -0.70012888256085        1.65670445289702        0.79114436678598
H            0.71317131458728        1.88615969797675       -1.12351416947263
H            2.20484279712028       -0.72437762611843        0.70218015113436
H            2.31850889024248        0.91795523153484        0.05999621510327
H            2.82788969086773        0.00100411198416       -2.20527665750148
H            2.75653583878766       -1.63851807988929       -1.54916440556791
H            4.67295173255464        1.51216098238724       -1.59284552483075
H            6.97118854076041        1.73519229146360       -0.79024362979283
H            8.68007054866867        1.80842364135066        0.82466604008713
H            9.24779246496754        1.13804555944107       -0.73068071028524
H           10.07705164909794        0.70744337336271        0.78329527175519
H            7.11882549049365       -4.25003702637692        1.68399156056002
H            5.49663251512137       -3.52634113772286        1.79762017648021
H            6.10586142979457       -4.12042602879503        0.22608465847767
H            4.47515935549441       -2.43969072366599       -0.02721649020696
H           -0.14082032698593       -1.75840448623674       -1.66950243264467
H           -0.95989883166814       -1.35603887880882       -0.14640277952300
H            0.61708620172978       -2.15578340472602       -0.11407218740623
H           -4.38212398735420        3.43614631773163       -0.43917853596436
H           -3.90945647872971        3.05331698820648        2.50296099141952
H           -4.93156752750532        1.86416457357629        1.69423814227050
H           -5.46143064891592        3.55056819478578        1.78136306215385
H           -3.06101195486046        5.14883503689627        1.92536335715053
H           -3.37254563142259        5.66214906132286        0.24894827565699
H           -4.71734472438678        5.49126299758036        1.46612385639125
H           -0.78360427674470        2.78010474792132        2.71472175074957
