25
 energy: -41.964670550661 gnorm: 0.002039020085 xtb: 6.6.1 (8d0f1dd)
C            3.58976712422887        0.83870506714032        0.22941208085546
N            3.17957791736277       -0.54319994333060        0.07537017830027
C            3.63095564646219       -1.74121955118091       -0.15249794823971
N            2.75242049262791       -2.83266647833722       -0.25788613089364
C            1.47729338671456       -2.77219461722343       -0.12301859473028
C            2.23008671422125        0.30099140821473        0.38756639105755
C           -1.66136900298170        1.66464161513727        0.01581119549055
O           -0.97706917103926        0.71885154781726        0.09561607994019
N           -2.41173513009271        2.53333366633373       -0.23608919457674
C           -3.12479445101034        3.72204720406632        0.00586615402353
C           -3.63943753655214       -0.70173411622365       -0.46277356863290
O           -4.46140010646601        0.05901231686196       -0.61049342574138
N            0.31630379245298       -2.62064025477301       -0.30445765455416
C           -0.97455280317414       -2.55255223263443        0.22103778716784
H            4.17154434598418        1.09181720225774        1.10916288702872
H            3.90217155766257        1.35286646895208       -0.67575569520902
H            1.19892592049970        0.44409459962143        0.18119436379832
H            4.68061388021523       -1.93923872220288       -0.25062961429584
H           -2.44894214622048        4.57825247261551       -0.02117226649745
H           -3.87003100909262        3.82819804522641       -0.78205578169359
H           -3.62524392306982        3.68144731941936        0.97485182286885
H           -1.04251503561388       -2.97625279962671        1.22372949761501
H           -1.64596374069978       -3.07434005187374       -0.46014175438343
H           -1.27513237538884       -1.50120072900279        0.23966199971354
H            3.18895716706149       -3.74078089565933       -0.39113719051331
