  25
        -42.18836285
 C          3.2319502843        1.1261192155        0.0419261585
 N          2.2617251579        0.0667394795       -0.0141703570
 C          2.5330197595       -1.2526900617       -0.0228094031
 N          1.3757164233       -1.9545216183       -0.0290068505
 C          0.3434676475       -1.0713896954       -0.0217906771
 C          0.8905492800        0.2171783790       -0.0118100686
 C          0.0498565811        1.3244267818       -0.0064991721
 O          0.5079184823        2.5890172953        0.0416051107
 N         -1.3090975254        1.0959792761       -0.0303459976
 C         -2.1936736315        2.1055086969       -0.0669158197
 C         -1.8782789389       -0.2280884854        0.0141114211
 O         -3.0691087088       -0.3748720705        0.0465922593
 N         -0.9964458042       -1.2904556254        0.0050974668
 C         -1.5280935586       -2.6413533391        0.0178440973
 H          3.6182167661        1.2373596955        1.0574474915
 H          4.0624297736        0.9067761413       -0.6276037764
 H          2.7581307079        2.0582608785       -0.2559933844
 H          3.5136665152       -1.6785158463       -0.0234313604
 H         -0.2246210471        3.1800164890        0.2806573688
 H         -1.9043118150        3.1121746947       -0.2898996044
 H         -3.2242717081        1.8647057354        0.0535868308
 H         -1.2115441594       -3.1636403031        0.9208849943
 H         -1.1973138271       -3.1854703487       -0.8671423223
 H         -2.6145275781       -2.5727633857        0.0094171781
 H          1.3062714074       -2.9608147528       -0.0404148594
