25
 energy: 37.066993596712 xtb: 6.6.1 (8d0f1dd)
C            3.36910247310439        2.07872215233250        0.52425016537872
N            2.37475353208161       -0.23445835264047       -0.28991845248684
C            2.53459911272275       -1.51965366424263       -0.25676883202919
N            1.35801364305100       -2.22816160692642       -0.14045709837264
C            0.37483641742116       -1.28486986450083       -0.10141859380864
C            1.01968032272000       -0.04738860577909       -0.16792041398267
C            0.23918778355137        1.17095377055823       -0.22834154562542
O            0.63024860728303        2.29990533007486       -0.42247085354050
N           -1.13870179238238        0.92348801074391       -0.10588938590639
C           -2.01337394008597        2.09748786659084       -0.09475430672703
C           -1.77144421895220       -0.28862130839601       -0.01224983524477
O           -2.97656732755744       -0.35383268029719        0.09480910723578
N           -0.97861347090706       -1.44357327723281       -0.03737360258743
C           -1.68910244018304       -2.69525617951762        0.05322650720239
H            3.65938311718851        2.08077093383253        1.54223302315539
H            4.05816892629115        2.28150735440102       -0.22839149159768
H            2.41875817521151        2.46557233092382        0.27461076261968
H            3.45811867305030       -1.99382836369501       -0.47903209357572
H           -1.38022285750215        2.97626763383779       -0.10179787170658
H           -2.64890385937447        2.09684940564592       -0.97489182229018
H           -2.60150121570040        2.12293358012153        0.81299319153282
H           -1.39847304955648       -3.27656816864175        0.92807026736682
H           -1.57515316730425       -3.29487191963213       -0.85229925156319
H           -2.74256773604107       -2.41661559497092        0.18077685029763
H            1.26269580151270       -3.23400133531595       -0.14372873670060
