25
 energy: 36.533553367367 xtb: 6.6.1 (8d0f1dd)
C            3.23919645879854        1.69401531632395        0.36454518162935
N            2.40806841122267       -0.05769259555869       -0.20570697851854
C            2.61517435232990       -1.38654422422545       -0.15175838782815
N            1.42616598771571       -2.09680888513005       -0.11014544388903
C            0.41807160276311       -1.19544438550000       -0.08482855623595
C            1.02254899933906        0.06195768641073       -0.09752739852306
C            0.20769659925030        1.23815846809405       -0.12610709267053
O            0.57208326234006        2.39424930737518       -0.24551228788710
N           -1.18479961605764        0.96019216057614       -0.07327419959998
C           -2.08704808999473        2.11061004774297       -0.07643455649696
C           -1.78021514029513       -0.26409679366694       -0.02840313711763
O           -2.98444527586315       -0.39265544368946        0.02980641233279
N           -0.93833649014490       -1.39056778094244       -0.04325909662186
C           -1.60600825329477       -2.67152424478609        0.00921662125723
H            3.57111442808133        1.77096384986806        1.36650321861380
H            3.99410593797707        1.84008910471778       -0.39803138959361
H            2.35143603393803        2.26754121185245        0.18460363763902
H            3.52195673356444       -1.96445877966716       -0.23933728240188
H           -1.48108851003843        3.01056861183967       -0.06542127281399
H           -2.71072466804785        2.09692276993524       -0.96799574039126
H           -2.70542783158172        2.10829707294337        0.81352069736017
H           -1.32024680572739       -3.23677184138559        0.89724506119082
H           -1.41428834252169       -3.26154228132076       -0.88927850216798
H           -2.68000557802522       -2.45181533392657        0.07229099438631
H            1.33450004044901       -3.09874440531569       -0.18151849556775
