25
 energy: 30.467311395577 xtb: 6.6.1 (8d0f1dd)
C            3.83252508968883        2.98388568727677        0.41289000848786
N            2.27305209779569       -0.63755477750510       -0.24797453012098
C            2.32521018582637       -1.92318423305676       -0.22055041411768
N            1.08262038028106       -2.51668619759830       -0.14418064400730
C            0.19576241178679       -1.48736393990283       -0.10224570654780
C            0.94678407258189       -0.32020157501977       -0.15893916229405
C            0.29765253465075        0.96545348004278       -0.13379073549359
O            0.80760680741959        2.05908128866030       -0.16192891535013
N           -1.10735912282894        0.83599726308175       -0.07592821168708
C           -1.89423523814690        2.06674553743985       -0.10086762414353
C           -1.85713900969878       -0.31634315429643       -0.02747730122905
O           -3.06641481628991       -0.29296615610546        0.02500602412017
N           -1.15818378369933       -1.52591082388214       -0.02600613853410
C           -1.88796977711667       -2.77238255715507        0.06061808790470
H            4.14996579202680        3.01155136418347        1.43152497865198
H            4.50987288629389        3.34762589976178       -0.32031304630054
H            2.80609406419972        2.72757967193750        0.14159329190207
H            3.22858542936554       -2.48048826779053       -0.29784368727908
H           -1.20438134632101        2.90615803585876       -0.13334286720358
H           -2.53554184030030        2.08019460231707       -0.98139225401592
H           -2.51924763968323        2.12208904600762        0.78868954654595
H           -1.58114369489026       -3.34375196257482        0.93809349881866
H           -1.74327414062006       -3.37128647700030       -0.83949088436055
H           -2.94252901167180       -2.52183886550680        0.15040101420033
H            0.87821665157596       -3.50489927527513       -0.13762566457435
