25
 energy: 36.795145152287 xtb: 6.6.1 (8d0f1dd)
C            3.30332774480058        1.90421483451485        0.47638579973903
N            2.38795254118959       -0.15260025017446       -0.25746547186288
C            2.57333138517405       -1.44474523946708       -0.21569346814954
N            1.39847752217025       -2.16532645004216       -0.11574834682402
C            0.39807483819113       -1.24278587988070       -0.08852853691349
C            1.02304788830724        0.00404345583837       -0.13657001545399
C            0.22753853928659        1.20600743838193       -0.17751092713147
O            0.59963932905356        2.34718050921143       -0.33857852946053
N           -1.15817177790073        0.94254926127004       -0.09065142282761
C           -2.04970282079941        2.10311245225557       -0.08619340902958
C           -1.77274184683575       -0.27705594604065       -0.02273799652073
O           -2.97791742529104       -0.37287181665199        0.06149217677473
N           -0.95596787468349       -1.41800319713712       -0.04069575325063
C           -1.64913026788718       -2.68201182683534        0.03124260680466
H            3.60449042884776        1.90652397774176        1.48957768472201
H            3.99472950776114        2.05574677490072       -0.30970231620077
H            2.36391661770717        2.35787655496915        0.29146804367461
H            3.50145613640180       -1.95912585544963       -0.36520991544862
H           -1.43141326991730        2.99343871019838       -0.08155266851850
H           -2.67893634605065        2.09530092980199       -0.97275562625011
H           -2.65431463921846        2.11278424415793        0.81182785080435
H           -1.36185267747518       -3.25164824402953        0.91523104210346
H           -1.49497692401059       -3.28041011920228       -0.86966475775968
H           -2.71376128487629       -2.42799083377856        0.12287859347439
H            1.31853716945456       -3.17103464375138       -0.14235863560257
