25
 energy: 30.647143211296 xtb: 6.6.1 (8d0f1dd)
C            3.77570592225436        2.84805544072038        0.43434799848785
N            2.27160568672190       -0.60532939494574       -0.26298266742084
C            2.34688011330331       -1.89295395119888       -0.27292855497704
N            1.11110068028786       -2.48678245219086       -0.17381172919606
C            0.21680200924200       -1.46732550310114       -0.11176662890080
C            0.94388807762174       -0.29118715142749       -0.17985112610175
C            0.29229694840423        0.99584338469435       -0.17653965004979
O            0.78908024219295        2.09337808756058       -0.24460946501669
N           -1.11141487601083        0.85104908326884       -0.08774334490258
C           -1.89364179265085        2.07819646560386       -0.10713565626202
C           -1.84485722566790       -0.31294341583007       -0.02137477874298
O           -3.05397797458710       -0.31624562727258        0.03523977635206
N           -1.13410172264297       -1.51221818602741       -0.02153602316846
C           -1.86313631115043       -2.75348138628930        0.07746270805766
H            4.06878768641366        2.82302226421151        1.46232466050894
H            4.47782521467208        3.17642566888063       -0.29946178099979
H            2.75564062628508        2.73666749128096        0.13205452118293
H            3.24735489071164       -2.47826835382070       -0.28817914430179
H           -1.20114886541788        2.91724592049699       -0.17332926448196
H           -2.55610757016080        2.07432835648990       -0.97267231093454
H           -2.49755890682456        2.13140317591379        0.79829385215061
H           -1.53206382772767       -3.33267098505506        0.93969559288115
H           -1.76691094013623       -3.34206724398131       -0.83526922686471
H           -2.91265691839547       -2.49273211385121        0.20526698105318
H            0.93421294991214       -3.47603077197745       -0.13713398148975
