25
 energy: 10.982085646939 xtb: 6.6.1 (8d0f1dd)
C            3.16536158538799        1.42460897294793        0.23463963674482
N            2.42698016870585        0.07960605182840       -0.07045075776531
C            2.66338686032817       -1.33471841510779       -0.08513925757333
N            1.44493895800541       -2.02474702625608       -0.12008141698427
C            0.43319331090444       -1.14020620303574       -0.07767929716572
C            1.00435393423379        0.13288461447062       -0.06131277566451
C            0.18008635118348        1.27663616061153       -0.07741100525285
O            0.55299335773291        2.44688805950115       -0.15653788285696
N           -1.21712398590837        0.98272427496536       -0.05556324150499
C           -2.12827140118364        2.12041356068159       -0.06803392242532
C           -1.79332267505538       -0.24550388239117       -0.03299699898058
O           -2.99721803106996       -0.40465096684063        0.00127682078175
N           -0.92827095478715       -1.35905594589456       -0.04529802164421
C           -1.56245981503983       -2.65984519325857       -0.01302615039365
H            3.59664594391568        1.58627069806068        1.22635286994492
H            3.98876004810636        1.59781918075830       -0.49377402073394
H            2.41737067863315        2.20769202011208        0.09251016085473
H            3.57087393245412       -1.89854038495455       -0.13966292992477
H           -1.53355667603844        3.02870923575695       -0.05299800355403
H           -2.74342762118344        2.09752777971117       -0.96583025148061
H           -2.76024463180324        2.10463256632163        0.81382938322676
H           -1.27562426210784       -3.22332703079830        0.87707893232978
H           -1.33514513941034       -3.23903102678207       -0.90981453365428
H           -2.64395265283164       -2.47904522793428        0.02744078128886
H            1.31390019527847       -3.03079821250155       -0.14389971296252
