25
 energy: -4.198894408789 xtb: 6.6.1 (8d0f1dd)
C            3.21170431111687        1.27641830920511        0.13714590848903
N            2.35897924380382        0.09924895534822       -0.00564269709196
C            2.62580595213434       -1.27628940089849       -0.00141915760885
N            1.42300066709953       -1.96979180003567       -0.03798037728226
C            0.40913301197088       -1.08785060889812       -0.03627627876033
C            0.95347847994588        0.19069133038394       -0.02156732387039
C            0.14048895143817        1.34349807649906       -0.02972299755239
O            0.52560814653324        2.51490520733054       -0.05619314929143
N           -1.25160200509377        1.02311013801092       -0.03731560751251
C           -2.18665078732751        2.13593194632144       -0.05511880633574
C           -1.81588053193955       -0.21521591931922       -0.04286240984665
O           -3.01843078830068       -0.39142258900924       -0.05010520329035
N           -0.94061392482105       -1.31904567398039       -0.03947031438416
C           -1.51048094328320       -2.64709358057689       -0.04348384913452
H            3.68836271048468        1.37418941366572        1.11897615615680
H            4.01626604518350        1.26793048528792       -0.61440831534340
H            2.58811644982674        2.15625332620970       -0.02150752760999
H            3.57689192614520       -1.75554225514243       -0.01240787063882
H           -1.61519682298186        3.06052083273492       -0.03469160070850
H           -2.79518628091571        2.09336708633849       -0.95742128430555
H           -2.83266294139859        2.08752228346949        0.81799940703436
H           -1.21373995449261       -3.20542572965945        0.84756192034450
H           -1.21990099650469       -3.19898192319040       -0.93970018146988
H           -2.59598922347346       -2.52351116777071       -0.03842383231122
H            1.32461106423893       -2.97364911193516       -0.04226749429010
