25
 energy: 30.708201773424 xtb: 6.6.1 (8d0f1dd)
C            3.79075498184099        2.90003813031678        0.41163460505547
N            2.28720717102579       -0.62545510778732       -0.25675298862680
C            2.33536771884546       -1.91684649480675       -0.25822503422750
N            1.09178904017959       -2.50271830237560       -0.16618894069901
C            0.20822103975727       -1.47395592465614       -0.10660507916186
C            0.95157351479594       -0.30399022527421       -0.17248792892052
C            0.29917102520019        0.98515196046331       -0.15289749895519
O            0.79039694505009        2.08638223218491       -0.20128820888748
N           -1.10820846900980        0.84358694696147       -0.07927821822745
C           -1.89167051502185        2.07343373776672       -0.10057086482494
C           -1.85115155855645       -0.31507471674997       -0.02403509107487
O           -3.06071034438458       -0.30673796752206        0.02307845321279
N           -1.14449775615382       -1.51526415917499       -0.01838529301552
C           -1.87177791868709       -2.76229812899890        0.06550743932659
H            4.10976972226202        2.92028753840122        1.43490362769323
H            4.48771085761223        3.24931483363698       -0.32014505327917
H            2.75413964312504        2.70690934974773        0.13348498732845
H            3.21676981563787       -2.52542032040600       -0.28945481934003
H           -1.20147400100108        2.91537967213598       -0.14664878717957
H           -2.54348475494535        2.07699526939576       -0.97603998485223
H           -2.51797303768797        2.12660699523138        0.79240903310360
H           -1.56157527236422       -3.33819199954220        0.93827549896161
H           -1.73045667019363       -3.35405643056691       -0.84213858585698
H           -2.92640399275142       -2.50814395990096        0.17095160742324
H            0.89664417313589       -3.49105373763076       -0.13381903988819
