25
 energy: 36.995271344041 xtb: 6.6.1 (8d0f1dd)
C            3.49809198579246        2.32170497771092        0.53643460017882
N            2.35299725178274       -0.36518842210195       -0.29901181888651
C            2.47745687921074       -1.64960852327547       -0.29436182376657
N            1.28211537922718       -2.31995705156563       -0.16792542999497
C            0.32952321843319       -1.34974896408498       -0.11645252990194
C            1.00871080042023       -0.13508703300695       -0.19122054716820
C            0.25806381715229        1.10308564609695       -0.28610823260589
O            0.69264620583169        2.21184190927476       -0.48899194129702
N           -1.11372093461000        0.89344526811685       -0.13089324902793
C           -1.95926283270560        2.08901943377432       -0.09762511582124
C           -1.78403772235191       -0.30077751857720       -0.00849805696403
O           -2.98809034003562       -0.31883059723116        0.11606548371280
N           -1.02478086663402       -1.47444093088517       -0.03431023301880
C           -1.75064389008805       -2.71439060427074        0.06850864238341
H            3.76600191838493        2.34554985223228        1.55810570691366
H            4.16621410065727        2.66522652552585       -0.16517457083835
H            2.53186228814630        2.59941192088498        0.23720206175409
H            3.38096925374969       -2.17318113844856       -0.47927388246634
H           -1.30574466858920        2.95104215978926       -0.13285480591277
H           -2.62281266181399        2.10034861167230       -0.95113029025629
H           -2.51767972014770        2.12609333123074        0.83132022081665
H           -1.41321457087335       -3.33457471135161        0.89869395009892
H           -1.70364676850224       -3.29182690435411       -0.85646479004869
H           -2.78378163591801       -2.41400510723866        0.27426729856918
H            1.15672393361859       -3.32017421540287       -0.15184762121995
