25
 energy: 32.171374832374 xtb: 6.6.1 (8d0f1dd)
C            3.75547053271868        2.75915268098803        0.46853417532669
N            2.28840681266902       -0.57444216850864       -0.27470111134908
C            2.37434285889032       -1.85836299346775       -0.27512399714941
N            1.14432664570987       -2.46621568131827       -0.17613043957003
C            0.23834787124374       -1.45328122444787       -0.11528165987312
C            0.96038118344372       -0.27257867741808       -0.18519696966010
C            0.29710598728509        1.01012145360274       -0.19821878454065
O            0.79141986995609        2.10580961693895       -0.29408889661393
N           -1.09922477639080        0.85749854441492       -0.08506170873681
C           -1.89252854654794        2.08043260121203       -0.10449223956370
C           -1.83072588241912       -0.30756379556912       -0.01773199049620
O           -3.03964263473010       -0.30779267910989        0.04482009569207
N           -1.11527214156086       -1.50721454902092       -0.02381679504246
C           -1.85145522306052       -2.74410536690378        0.08005831858609
H            4.00085199137292        2.77298850817221        1.50435902046529
H            4.41876719443232        3.16893745734177       -0.23887078295184
H            2.75773717976089        2.77570267072811        0.13965012574817
H            3.28912326518013       -2.42053128498338       -0.28711212492566
H           -1.20369560612193        2.91940857388911       -0.18644076715969
H           -2.55512461162044        2.07193999201421       -0.96688764819855
H           -2.47745843531683        2.13993773193821        0.81067424538817
H           -1.51595251899990       -3.34086433591715        0.92787588047699
H           -1.80021071886458       -3.32558964719162       -0.83997703288890
H           -2.89612804316664       -2.47410151033967        0.23304026164275
H            0.97543318330981       -3.45786966658180       -0.14806200646997
