25
 energy: -0.713549945551 xtb: 6.6.1 (8d0f1dd)
C            3.19299613452269        1.32577739041676        0.16734940858528
N            2.38772188470471        0.09451223577729       -0.02616306353496
C            2.63997099006391       -1.29598690090094       -0.02700050256235
N            1.42949229668792       -1.98801169849580       -0.06607937490594
C            0.41765423275126       -1.10431229547483       -0.05038085326176
C            0.97242192575229        0.17164872176664       -0.03663563849572
C            0.15415742994907        1.32043559871656       -0.04438636857066
O            0.53613444630638        2.49139842104475       -0.08883046749302
N           -1.24097951874649        1.00871895928241       -0.04232641371594
C           -2.16767573755507        2.12994669025973       -0.05873543600846
C           -1.80942386240373       -0.22618069711013       -0.03916124036009
O           -3.01263796084203       -0.39829018912681       -0.03317474964445
N           -0.93663044372444       -1.33197354590999       -0.04069928573242
C           -1.52822322958465       -2.65106181083961       -0.03359381052521
H            3.65597453064818        1.44635830670754        1.15247877719047
H            4.00859770204657        1.38114229101366       -0.57763766551767
H            2.52676825266687        2.17478647429430        0.01418079813043
H            3.57707008937859       -1.80554663804493       -0.05027755304475
H           -1.58814308470631        3.04886886427937       -0.04091224754501
H           -2.77924619947756        2.09460889358947       -0.95909434511204
H           -2.80824769463981        2.09403215050933        0.81797273808735
H           -1.23573568833086       -3.21160230047381        0.85720154782578
H           -1.25818080865561       -3.21240898642233       -0.93009352215828
H           -2.61292523562120       -2.50767216140926       -0.01763113218752
H            1.31372416828859       -2.99253252594094       -0.07349594872447
