25
 energy: 30.377716025127 xtb: 6.6.1 (8d0f1dd)
C            3.86650057572045        2.98983362839029        0.40598971760099
N            2.25778585609626       -0.63448917319459       -0.24264986255401
C            2.32061038036908       -1.91626816497084       -0.20122455489528
N            1.08334906689894       -2.51575650568397       -0.11851454950083
C            0.18840594970514       -1.49135500630111       -0.09033712196256
C            0.93220553177564       -0.32378209439370       -0.15189252893391
C            0.29172281840868        0.96547706759686       -0.13936030717954
O            0.82344156592030        2.05081760442035       -0.17108058455187
N           -1.10775036953504        0.83932551158161       -0.09180451313616
C           -1.89233551183618        2.06588065689580       -0.09606079327657
C           -1.85871788986998       -0.31330976968407       -0.02871993283412
O           -3.06763176691728       -0.28949339440914        0.02756529727448
N           -1.16600238729200       -1.52419077047639       -0.02314039103579
C           -1.88990473058669       -2.77246528920262        0.04650336137895
H            4.16499313859058        2.95761832834841        1.43680143417647
H            4.58297996017648        3.25959432006877       -0.35163312206894
H            2.85338666650910        2.73723041802338        0.13984225229624
H            3.24064275458384       -2.43761794737873       -0.30117408617063
H           -1.20776779172873        2.90991222428542       -0.12132335651039
H           -2.54424932438875        2.08751140436519       -0.96736557410024
H           -2.50492957443874        2.10699474238133        0.80291432774298
H           -1.57433719780108       -3.34857655237596        0.91674463014815
H           -1.72494918312280       -3.35587245535501       -0.85607050813869
H           -2.94663720157737       -2.53738311436039        0.12508364501040
H            0.90631795437383       -3.50615530723428       -0.10700115386094
