25
 energy: 34.260505038528 xtb: 6.6.1 (8d0f1dd)
C            3.66014134153418        2.58344956939532        0.50194513827571
N            2.31323962858884       -0.49105258656812       -0.29327779471491
C            2.41878047399353       -1.77566575504947       -0.29870703517183
N            1.20128865238033       -2.40830073103818       -0.18095399126118
C            0.27481611595464       -1.41342307271354       -0.12012442154369
C            0.97723774968699       -0.21852180415090       -0.19802689212767
C            0.28339112659439        1.04579272629339       -0.24594367579685
O            0.75387396108726        2.14966502120828       -0.37447151182532
N           -1.10000089861448        0.87125590784124       -0.10782474006702
C           -1.91177232887100        2.08533990349369       -0.09959019914331
C           -1.81168854265392       -0.30317796057782       -0.01436759712385
O           -3.01904779997777       -0.30918137501685        0.07406624027979
N           -1.07951500679093       -1.49296713736435       -0.02430789338043
C           -1.81766117820877       -2.72837884534017        0.08181144776540
H            3.91515417637410        2.59660627433344        1.53219420869232
H            4.31237857033671        2.97977486137008       -0.20500390579566
H            2.67400820668780        2.72576044441160        0.18587450415251
H            3.33828310422831       -2.32394200802154       -0.36296759940955
H           -1.23916152991149        2.93372803952373       -0.16782694828334
H           -2.58166227375933        2.08880025451015       -0.95166044814913
H           -2.45046165974204        2.14046978841733        0.83758468525787
H           -1.47419620730186       -3.35415652836638        0.90674622155932
H           -1.81163299154964       -3.29216682836750       -0.84918217814782
H           -2.85442476075320       -2.44215606983231        0.27493973312088
H            1.04768217890481       -3.40287985502467       -0.14829042838127
