25
 energy: 33.445163144509 xtb: 6.6.1 (8d0f1dd)
C            3.71608599392279        2.67020568709698        0.48795076055085
N            2.30344786684176       -0.53400428822942       -0.28848839344191
C            2.39536786965610       -1.81796380903063       -0.28812706106282
N            1.17174172040241       -2.43753474685813       -0.17894509371517
C            0.25620937438615       -1.43273135624454       -0.11786716779250
C            0.96933978963946       -0.24510239451867       -0.19340171246386
C            0.29126147821074        1.02949378500659       -0.22071441018766
O            0.77305205158131        2.12957932092984       -0.33223113779865
N           -1.10015050940347        0.86671169701127       -0.09330228765891
C           -1.90313954930373        2.08343176413275       -0.10236771539442
C           -1.82147652711201       -0.30321678049359       -0.01621897605904
O           -3.02981040965713       -0.30235179258483        0.05666475808538
N           -1.09856037553983       -1.49870901911613       -0.02522101489756
C           -1.83737949983970       -2.73439701224365        0.08467488031323
H            3.96258212948374        2.69070338157649        1.52088331337510
H            4.36040914388944        3.07503912236900       -0.22978515893761
H            2.72325269420236        2.76331546036464        0.17944862156714
H            3.30732619979551       -2.37919421944685       -0.33549284068294
H           -1.22128937898962        2.92582565696923       -0.17829824039432
H           -2.57225241453976        2.07649024950729       -0.95960591708892
H           -2.46370623842690        2.14285483414591        0.82440749558281
H           -1.49076482578790       -3.34106403780601        0.92204600660998
H           -1.83253381298869       -3.31263269339891       -0.83707415053746
H           -2.87714423910464       -2.45557677354850        0.25937465019277
H            1.01169821384619       -3.43110293683076       -0.14892360829919
