  72
        -99.30035858
 N         -1.5703186498        2.9661935413        1.7994684547
 C         -2.2718504152        1.9440217244        1.5873137807
 C         -2.9593677680        1.4705589585        0.2998059889
 C         -3.4429915581        0.3009068769        1.1701443457
 C         -4.3292289304       -0.7948572041        1.1274763515
 C         -5.1729457494       -1.2486836389        0.1570562626
 O         -6.1186920157       -2.1762845067        0.3699352048
 C         -6.4121935585       -2.6237373938        1.6747380841
 C         -5.2211005468       -0.8458916858       -1.2705429597
 O         -6.4852271051       -0.5146670713       -1.6221378293
 C         -6.8242363087       -0.4699196587       -2.9896879729
 C         -4.1736499811       -0.9623859778       -2.0909405693
 C         -2.7767028146        0.7758093298        2.2746756290
 C         -1.9153736455        1.1177719541       -0.8027408261
 C         -1.0506226430       -0.0138269433       -0.4557907210
 C          0.0316507903        0.0947596542        0.5421712944
 N          0.8844679814       -1.0704736508        0.5672020388
 C          2.2971454979       -0.8146403609        0.7219360076
 C          2.9217557157       -0.3993426966       -0.6236888958
 C          4.3935726911       -0.1516894715       -0.4764330490
 C          4.8728619270        1.1138155741       -0.1639608838
 C          6.2302838778        1.3458098951       -0.0153355964
 C          7.1451119895        0.3121312407       -0.1719179443
 O          8.4795417970        0.4211785315       -0.0620361280
 C          9.0508783027        1.6793386810        0.2147079761
 C          6.6640682018       -0.9932600001       -0.4816393758
 O          7.6149495571       -1.9347878297       -0.6152964951
 C          7.2437337357       -3.2540229909       -0.9398254517
 C          5.2994059873       -1.1982528625       -0.6247345218
 C          0.3565946056       -2.1873368475        1.3085484637
 C         -4.0437303962        2.4219204635       -0.2249617635
 C         -5.0523320842        2.7434005735        0.8786362304
 C         -3.4278310403        3.7183128672       -0.7469951540
 H         -4.3994911700       -1.2848258737        2.0922580092
 H         -5.5911745547       -3.2150687614        2.0905543097
 H         -7.2932705803       -3.2544347698        1.5741237161
 H         -6.6364265518       -1.7848292869        2.3394498732
 H         -6.5872502688       -1.4183680260       -3.4810214854
 H         -7.8992392890       -0.3030167275       -3.0177862548
 H         -6.3149246344        0.3469472335       -3.5075603387
 H         -4.2405482817       -0.7533916610       -3.1449586289
 H         -2.6982696099        0.4403481155        3.2936720012
 H         -2.4552835986        0.9119944675       -1.7270652366
 H         -1.3154269160        2.0253739832       -0.9182292543
 H         -3.2302268699       -1.3094432196       -1.7163351245
 H         -1.2155610561       -0.9804233526       -0.8996945130
 H         -0.4250303195        0.2603150795        1.5430852804
 H          0.6293099439        0.9933560828        0.3491108846
 H          2.7820845124       -1.7292725381        1.0667806351
 H          2.4908254364       -0.0301477453        1.4684940903
 H          2.4303519024        0.5039282745       -0.9866474711
 H          2.7408871773       -1.1976891164       -1.3439334188
 H          4.1834074342        1.9356487281       -0.0449422778
 H          6.5708764513        2.3411810333        0.2187462159
 H          8.7202765510        2.0647757687        1.1838108762
 H          8.8145054040        2.4062841416       -0.5680031584
 H         10.1260401047        1.5125705249        0.2402635227
 H          8.1757180144       -3.8123993129       -1.0032731576
 H          6.6100835889       -3.6940057363       -0.1635848260
 H          6.7276143947       -3.2992081085       -1.9035701192
 H          4.9246251454       -2.1800869436       -0.8673863163
 H         -0.6919802542       -2.3272179149        1.0521228554
 H          0.4307290636       -2.0434288929        2.3961077960
 H          0.9030856477       -3.0905849557        1.0416684474
 H         -4.5741622226        1.9133310672       -1.0386193393
 H         -4.5637920668        3.2677085877        1.6971432834
 H         -5.5130837533        1.8389296254        1.2687792483
 H         -5.8381687383        3.3829111002        0.4857787474
 H         -2.7726236772        4.1457894293        0.0086601835
 H         -2.8566840000        3.5549151487       -1.6568675008
 H         -4.2127937879        4.4366885856       -0.9687650948
 H         -1.2215046591        3.1116610592        2.7413335679
