25
 energy: 45.347350897298 xtb: 6.6.1 (8d0f1dd)
C            3.26530523865664        1.20391819238002        0.23383736066637
N            2.33461627524022        0.12746453290530        0.02077387807934
C            2.63045425201543       -1.24459919310345       -0.03250640471149
N            1.43498676116340       -1.91991032443631       -0.16121926163231
C            0.42014222158311       -1.04910904168051       -0.25396564137274
C            0.92847481912117        0.24942526874403       -0.11877713584887
C            0.08243891547186        1.37730866908727       -0.11103043815502
O            0.39607884819339        2.57220417730049       -0.07287118697744
N           -1.31623129441822        0.98644316745576       -0.08026652010286
C           -2.20663912553522        2.14398136156439       -0.15488391347888
C           -1.69132859379942       -0.31939307686859        0.20642124711916
O           -2.52288933249397       -0.73298961000390        0.98872505867297
N           -0.94061331103128       -1.31733091146487       -0.43574230477652
C           -1.53828194108331       -2.65723316145185       -0.14657476559887
H            3.76523069938708        1.13512570443213        1.21376798596117
H            4.03769740610321        1.20380297310146       -0.54319654738237
H            2.70762420335574        2.13986948587702        0.17637645021754
H            3.59128297142320       -1.70582120607968        0.07022527097210
H           -1.59744743341848        2.95541789798866       -0.60294407718796
H           -3.09680294625710        1.93191317319423       -0.76133452698004
H           -2.52433484439775        2.46091775500356        0.85830686004637
H           -1.22632379552186       -2.83473286770802        0.90466271402993
H           -1.75322310731208       -3.11524646481029       -1.09843227324916
H           -2.56377814785508       -2.74613241613270        0.28428117388567
H            1.31606051070125       -2.91983886724465       -0.19663586423363
