25
 energy: 164.454566436452 xtb: 6.6.1 (8d0f1dd)
C            3.19840355127207        1.19548898016814        0.42776470505918
N            2.28288101293117        0.13874221128934        0.12802953125019
C            2.57013684843354       -1.17962958059126        0.03763744811219
N            1.43706952442926       -1.85405179604599       -0.27957097753018
C            0.42724309661382       -0.95415502141529       -0.37754992450996
C            0.93939888931778        0.30339364005130       -0.10110724919339
C            0.09095637413385        1.46553939354088       -0.08451314288731
O            0.44537834323209        2.63305699056735        0.01390380090835
N           -1.23783351661727        1.07397037525588       -0.26357369884318
C           -2.15809211481762        2.19464749160409       -0.33403043785799
C           -1.75424786454159       -0.17555533339052       -0.45721376655999
O           -1.77634601327910       -1.97338594608105        1.01944741533708
N           -0.83007880921203       -1.18208184692413       -0.70784913596453
C           -1.52214797625018       -2.51985684625478       -0.42904630487352
H            3.69520881942917        1.00229788032861        1.37938409783115
H            3.95909902270468        1.27160402991570       -0.35368404765882
H            2.63551978446738        2.12734448214074        0.50733270414120
H            3.53179522354693       -1.62664328066878        0.12455667600180
H           -1.96810649337125        2.66416807059059       -1.28746246663146
H           -3.20259989074554        1.88854124209917       -0.27733058142080
H           -1.95941856639074        2.86641603474546        0.48304787594760
H           -1.85294286830334       -2.75513976016041        1.62873635638511
H           -2.34543887541699       -2.56737548601624       -1.14063557577612
H           -2.06033491102983       -3.81612246085832        0.53567828089943
H            1.31919340428004       -2.85257167311510       -0.38061583750071
