25
 energy: 165.096334503462 xtb: 6.6.1 (8d0f1dd)
C            3.20095532338984        1.19475690468810        0.42311219573113
N            2.27800573512460        0.13528767820755        0.11284755069987
C            2.56633599118995       -1.17952829645068        0.02176521462968
N            1.42901074543856       -1.85746345847845       -0.28176978272052
C            0.41156360560938       -0.96264165443481       -0.39676131313398
C            0.93049384613811        0.29470273914086       -0.11625291503248
C            0.07368206323400        1.44744313894497       -0.08175823538603
O            0.43138580283004        2.61689960046934        0.00185518554708
N           -1.25538836073141        1.05119700817641       -0.25312773335250
C           -2.17016252420210        2.17819764696063       -0.30740917399351
C           -1.79629022954987       -0.19945163806112       -0.47299942518865
O           -1.88568543278395       -1.84602230080932        0.97981716765239
N           -0.84237102036720       -1.20171648138131       -0.74371556752627
C           -1.53930004667325       -2.53154667027005       -0.39533985975688
H            3.70768125778459        0.98460976083434        1.36710901184714
H            3.95147371080618        1.29866986288776       -0.36334229128673
H            2.63876757811943        2.12661683097155        0.50523899910190
H            3.52459318130918       -1.62809390032203        0.15075556668207
H           -1.93851377418300        2.71627644095067       -1.21270204175251
H           -3.21465182234433        1.88063942099003       -0.29955414759817
H           -2.00830534842183        2.80905260026842        0.55033177856735
H           -1.99366893709853       -2.67738619853667        1.55711878735470
H           -2.31954634168994       -2.63238022500747       -1.15153312630586
H           -2.15669237861405       -3.78970101351251        0.50766849586719
H            1.33453703558892       -2.85608990571474       -0.39893718598478
