25
 energy: 70.119899552892 xtb: 6.6.1 (8d0f1dd)
C            3.26391098129089        1.20580002299290        0.25945143840187
N            2.32874419451534        0.12928221359662        0.02535138378866
C            2.62109842859983       -1.24033770869717       -0.03433626079125
N            1.42863706480599       -1.91504552657677       -0.18552312559785
C            0.40995208351760       -1.04582779142133       -0.29798983016449
C            0.92369350799093        0.25045153069668       -0.14454518671404
C            0.07728614575651        1.38204704073494       -0.11691553422501
O            0.38838644875013        2.57638824182527       -0.08948354690040
N           -1.31411950440367        0.98914153911480       -0.07870615870199
C           -2.19966314366633        2.14872074564361       -0.17258940810966
C           -1.68564328680242       -0.33650238562102        0.18997209862482
O           -2.36326443154144       -0.76797185093445        1.10900932733683
N           -0.95897430111650       -1.32155399095575       -0.50523202317441
C           -1.52661381185910       -2.68457665729060       -0.15868713620515
H            3.77022396102433        1.11639282780339        1.23603659281157
H            4.03643150644936        1.23327576661753       -0.51973355264408
H            2.70715079036391        2.14415709136342        0.22333612368902
H            3.58215935922039       -1.69342654972955        0.08809042905535
H           -1.61366058753200        2.93035376736429       -0.69070444408259
H           -3.12318340339019        1.92025786162127       -0.71106343427974
H           -2.46077156057317        2.51613269813640        0.83941545536119
H           -1.31956100776540       -2.74002462255332        0.96179172706580
H           -1.81856917693672       -3.09846078143320       -1.12141760739147
H           -2.56488637914352       -2.84233523849342        0.28849014707551
H            1.30731790223220       -2.91515849432443       -0.22648588465030
