25
 energy: 28.664580703006 xtb: 6.6.1 (8d0f1dd)
C            3.26490595840545        1.20133890513714        0.21174214396901
N            2.33570961762970        0.12388644240540        0.02815803862927
C            2.63401362120202       -1.24487399366288       -0.01693749033829
N            1.44034330685503       -1.92361703311032       -0.13482251629507
C            0.42800105231157       -1.05173203249728       -0.21267877632078
C            0.93280651171635        0.24810230553647       -0.09221760850544
C            0.09195158337772        1.37440498261086       -0.09413174763138
O            0.40284548842083        2.57167513318163       -0.04263603832389
N           -1.31299317265951        0.98403315122743       -0.09540715937673
C           -2.21282137236677        2.13494885486489       -0.14122159531944
C           -1.69704460963094       -0.30500599510513        0.21603131146218
O           -2.67050282900480       -0.70187897281212        0.82386348400769
N           -0.92334244254734       -1.31437190178871       -0.36471089330900
C           -1.53247615383641       -2.63963551227833       -0.13959433573089
H            3.75997125969124        1.15185848569184        1.19308990064306
H            4.03673220201408        1.17611625506407       -0.56362252075855
H            2.70790580967114        2.13568568178180        0.13436292392252
H            3.59798149921486       -1.71039965733687        0.04897698039104
H           -1.59542585843485        2.97414904196501       -0.51585061886684
H           -3.07099717086073        1.94187658471647       -0.80302338472917
H           -2.58196905416452        2.39937565554843        0.86633791717073
H           -1.13840651386438       -2.92962965648641        0.83495040573420
H           -1.66839187772774       -3.13238153932959       -1.07856907475689
H           -2.52585952103230       -2.69537964388774        0.32641739717544
H            1.32686231492284       -2.92385317241979       -0.16557498147639
