25
 energy: 15.730226613627 xtb: 6.6.1 (8d0f1dd)
C            3.26118896867317        1.19654080499522        0.18776636040150
N            2.33198917554184        0.11751226058096        0.03309065925314
C            2.63192909268529       -1.24582544619366       -0.00519303846150
N            1.43984555721747       -1.92766903415902       -0.10809778972503
C            0.42630892276148       -1.05521271868882       -0.17042946468469
C            0.93243329504056        0.24317158142629       -0.06894376206363
C            0.09717631484089        1.37003524311423       -0.07697765450808
O            0.41198771901546        2.56752447985845       -0.02554819452291
N           -1.31813843714652        0.98439421751305       -0.10342448018378
C           -2.21649743376796        2.13211255624769       -0.12424496419288
C           -1.73394623852639       -0.28904714178458        0.18740474797035
O           -2.80209099362442       -0.67511483372803        0.62598822345046
N           -0.91616740561857       -1.31236143179230       -0.29754312553603
C           -1.52692762557036       -2.63039205253818       -0.13609553771942
H            3.75270906774770        1.16688615227780        1.16993140051047
H            4.03249548702663        1.14953347211198       -0.58596416327083
H            2.70532018108386        2.12920863312771        0.09054604986962
H            3.59826653439571       -1.71063431810259        0.03998853170157
H           -1.59628059022199        2.99522618224541       -0.41776038726494
H           -3.02906964009963        1.96898197900369       -0.84174280625904
H           -2.64267568630224        2.33244305896471        0.87121351414673
H           -1.07120552054089       -3.02168954908505        0.75765096981533
H           -1.56801755776659       -3.14927134937440       -1.06576915674444
H           -2.51924672161015       -2.66345655063452        0.33078003639186
H            1.33603562743544       -2.92850945655110       -0.13514260430244
