25
 energy: -4.703195362409 xtb: 6.6.1 (8d0f1dd)
C            3.24624961754407        1.17921703593644        0.11175253546913
N            2.31118808630577        0.10607242891277        0.03559534180100
C            2.60954969962926       -1.24007262919126        0.02389882156278
N            1.42708271040434       -1.93632981970929       -0.02583144371047
C            0.40836756423179       -1.05950254579381       -0.04711063383628
C            0.92322276564218        0.23013649184004       -0.00474393920465
C            0.10714335804307        1.37986653813557       -0.02347375860565
O            0.47029185136081        2.56089468625184       -0.00888117230849
N           -1.28611195942500        1.02617440343117       -0.05281880761695
C           -2.22046655102143        2.14097283136743       -0.06885275119391
C           -1.81341101636699       -0.23666565661873       -0.01036835913024
O           -2.99912928146902       -0.49681979661697        0.07425877848555
N           -0.92636527760248       -1.30526167607042       -0.10428135966193
C           -1.48824787412821       -2.63096270720285       -0.03865055758713
H            3.72713801937737        1.20700841660796        1.09460807570264
H            4.01675566634818        1.06524898553458       -0.65337096130266
H            2.69989722254973        2.10763524230158       -0.04582817088663
H            3.58397146394488       -1.66290719497101        0.04094925055967
H           -1.63932316082197        3.06320520252664       -0.12431054601270
H           -2.88131488669265        2.06024181425754       -0.93110942051913
H           -2.82236917371967        2.14139688157036        0.84076221965517
H           -1.12073051383493       -3.09937037120996        0.87573730190254
H           -1.24757339211556       -3.17175367671354       -0.95878683595854
H           -2.57250245036677       -2.57141678534508        0.04325409459164
H            1.36411301680718       -2.93976678911447       -0.04403403198031
