25
 energy: 102.384617704722 xtb: 6.6.1 (8d0f1dd)
C            3.26303812138042        1.20484951847853        0.28357787136877
N            2.31782889274726        0.13068313792847        0.04006935052773
C            2.60644648002849       -1.23258634584028       -0.02585368534745
N            1.42052396318260       -1.90775161844650       -0.20857530521571
C            0.39815709781066       -1.03965398447398       -0.34012616981077
C            0.91732699890458        0.25197222512158       -0.15695675575563
C            0.07059082823359        1.38789426722875       -0.09536858269698
O            0.37843442163664        2.58236027145534       -0.06972042879794
N           -1.30846532363778        0.99268320908885       -0.07295734815898
C           -2.19433135982204        2.14939394445159       -0.19402923202495
C           -1.69039396782902       -0.36084665745525        0.15339852260925
O           -2.21106829517241       -0.82062743569933        1.17379501370224
N           -0.97128776636685       -1.32610722900680       -0.58205755294017
C           -1.48581929511856       -2.71989683216493       -0.18137011965016
H            3.77431853481430        1.09971859278782        1.25558630445525
H            4.03682919584814        1.25068489382329       -0.49508518485469
H            2.71249734217726        2.14758160929441        0.26535963967970
H            3.56816487518856       -1.67752076833535        0.11076432610394
H           -1.64748038080146        2.89792807069710       -0.78557775941357
H           -3.15485963131087        1.91001822263999       -0.64523271683894
H           -2.38736964348747        2.56312992073223        0.81152363181916
H           -1.44213496992252       -2.59127416656196        1.01585722924799
H           -1.81736121405987       -3.10319851995161       -1.14884946156322
H           -2.53707006411435       -2.97108156822396        0.29180304799523
H            1.29712249414710       -2.90828177178745       -0.26279004281990
