25
 energy: 167.347672918038 xtb: 6.6.1 (8d0f1dd)
C            3.21203451145582        1.19155045383499        0.37597179990619
N            2.26440046706797        0.11495737193634        0.08367370966760
C            2.56600484351352       -1.18939276072914       -0.00017859070280
N            1.42685232241109       -1.88678932275475       -0.26148092064181
C            0.36963316229282       -1.02964506096087       -0.39863091621587
C            0.90955512435758        0.24999179282626       -0.14851206641456
C            0.02841939613433        1.40667302448616       -0.07164200770974
O            0.39133933337295        2.57668356285079       -0.03924968769133
N           -1.27926234872503        1.00050887893752       -0.13047396505767
C           -2.18269346979191        2.14481641261970       -0.25709873511886
C           -1.82185704912655       -0.40905399625578       -0.14420490747002
O           -1.92729087275434       -1.30429012582241        1.23478247378200
N           -0.89425796448057       -1.36136404282264       -0.69674474549938
C           -1.43975003270499       -2.82745939511006       -0.52574033549423
H            3.73075710979356        1.01145924916420        1.32472847503625
H            3.96564957192687        1.28635965760676       -0.40701709928914
H            2.66862625206884        2.13718085025399        0.42574761840506
H            3.52645806863190       -1.62692913702695        0.17317620603747
H           -1.82124516449602        2.78714086596761       -1.05226103581303
H           -3.21455559238725        1.87469063100970       -0.42809450581908
H           -2.15484044299742        2.71411615196409        0.66888237885216
H           -1.84529813112804       -2.34431622770163        1.29814040557217
H           -2.13080478363065       -2.85446266666787       -1.32366117646259
H           -2.20747526106894       -3.38088359790528        0.36362547590418
H            1.31476164511995       -2.88800227322584       -0.35574206139519
