25
 energy: 118.422706210282 xtb: 6.6.1 (8d0f1dd)
C            3.23449529296170        1.21729063117470        0.37245185114092
N            2.29366434574135        0.17421187468325        0.11965020521648
C            2.55807274604238       -1.16528866620062        0.04305285982348
N            1.38877476749165       -1.81827161912170       -0.20424443126542
C            0.39290023717303       -0.91143505164660       -0.29378383594015
C            0.93318087252012        0.34795007413796       -0.09515529390825
C            0.13505787602855        1.52048159125441       -0.10951351255007
O            0.50535616441410        2.69095556683509        0.05089639067902
N           -1.22200274364661        1.19250442557033       -0.34819211915694
C           -2.12778601141830        2.32251212125610       -0.37875377118495
C           -1.79312296140564        0.00725737342755       -0.57398987088878
O           -1.63847185547867       -3.02204615330209        1.03650095869960
N           -0.93987719363982       -1.09457595477811       -0.54773606043528
C           -1.36157673953602       -2.36430160821057       -0.81947692978280
H            3.74917543501208        1.04613622946845        1.32251376989859
H            3.97772607983529        1.26907191091499       -0.42372093566053
H            2.68284381875910        2.15466374468880        0.42717731951111
H            3.52151314090793       -1.60653927759682        0.15461268839036
H           -1.82289736517336        2.97276289915516       -1.18668216802397
H           -3.13640356604613        1.93997410846474       -0.52933447353941
H           -2.06965456513136        2.89328385700986        0.54844711107344
H           -2.03702737864657       -2.60960891550885        1.81220488051000
H           -2.44837879169277       -2.30913272824987       -1.00135665059608
H           -2.19065621800090       -3.77758448716313        0.81890250383759
H            1.28094927991928       -2.81538125784391       -0.32625781304706
