25
 energy: 125.605976505464 xtb: 6.6.1 (8d0f1dd)
C            3.24615613045353        1.19751477678590        0.31439867735818
N            2.29018255303671        0.11495824537771        0.05133286470592
C            2.58591759058973       -1.20609073359771       -0.02088283601875
N            1.43025397608162       -1.89995531366307       -0.24562271337171
C            0.37353371384824       -1.03912132154507       -0.37007601748108
C            0.91791149598238        0.24379042702207       -0.15823089705567
C            0.04135601757761        1.40049706183812       -0.06983280246637
O            0.38566679673559        2.57865063823383       -0.04244637896293
N           -1.28004910272026        1.00123205432094       -0.06087436326704
C           -2.18317125080105        2.14903448418914       -0.21913460485708
C           -1.76852988180005       -0.39818418142926        0.02545870834878
O           -1.94182753932567       -1.01920830165130        1.30464438348596
N           -0.93565761846794       -1.37219761761202       -0.61836640356938
C           -1.40816076084933       -2.82099672367777       -0.39509116147473
H            3.75753464571267        1.06460309367015        1.28002134269378
H            4.01651422537497        1.25938952760334       -0.46247531032436
H            2.70471842455976        2.14664902920390        0.31659871250900
H            3.55017568078736       -1.65132907457105        0.13117975802416
H           -1.69545053057779        2.87182690153248       -0.87766204773269
H           -3.17426382087381        1.89478942510296       -0.57828090996818
H           -2.30755796768590        2.61099726500463        0.77022905612608
H           -1.75613829719020       -2.07238227506765        1.24159270202129
H           -1.93081145229276       -3.04139801334839       -1.29619005688962
H           -2.30805824200556       -3.16616643225741        0.36461213277267
H            1.28740463684892       -2.90181316966465       -0.29416827650476
