25
 energy: 5.219439953600 xtb: 6.6.1 (8d0f1dd)
C            3.25696830493047        1.19117610910926        0.16259757839718
N            2.32538057029072        0.11401630471828        0.03422489123300
C            2.62542370330498       -1.24336110477073        0.00498737308075
N            1.43666997147104       -1.93066701903436       -0.08134881606785
C            0.42136626148702       -1.05717195121000       -0.12763786785913
C            0.92964190156312        0.23887042454166       -0.04675140780220
C            0.09999632200711        1.37181311638601       -0.05791176333982
O            0.43109325902859        2.56533689088134       -0.02140045647557
N           -1.31030167301707        0.99302057982016       -0.07843348049812
C           -2.21810031846996        2.13182817985880       -0.10352912699376
C           -1.77425109010691       -0.27915287234853        0.13399016837741
O           -2.90286433936969       -0.64687391793197        0.41943382618643
N           -0.91552531558976       -1.31331106403300       -0.22969527287800
C           -1.52024348252294       -2.63131152038738       -0.11990017666629
H            3.74425389394587        1.18026462012954        1.14567277307862
H            4.02855998821587        1.12122168638591       -0.60823454691504
H            2.70416447194779        2.12263192960415        0.04500203238163
H            3.59461896930561       -1.69305263709272        0.03977994216549
H           -1.60381718307554        3.01696575147959       -0.32005045556714
H           -2.98139812839627        1.99598408090657       -0.87412125576937
H           -2.70468365869338        2.27067622626154        0.87009546115745
H           -1.01997321038960       -3.10143280379015        0.69888784957659
H           -1.46826369753352       -3.15424873254107       -1.05219656667418
H           -2.55544039450975       -2.63225158113837        0.24489647817420
H            1.34575550906997       -2.93231398265472       -0.10567337702916
