  72
        -99.24014914
 N         -2.0184636526        2.6033850291        2.4957842424
 C         -1.8636629424        2.0247981214        1.3958802902
 C         -3.0085629953        1.7840082354        0.4232474386
 C         -3.4345114288        0.3137300027        0.4775541703
 C         -4.4968132054       -0.1141003662       -0.3778900494
 C         -5.3757752826        0.7001933984       -0.9908691556
 O         -6.3263314377        0.2526853440       -1.8233622480
 C         -7.2730523973        1.2004803690       -2.2731406151
 C         -3.7343639648       -2.7068198943        0.5518589690
 O         -4.0732318265       -3.9616263770        0.5790443443
 C         -3.7974856842       -4.7715552990        1.7268335060
 C         -2.9486797572       -1.9755525000        1.3729110235
 C         -2.7630459373       -0.5683399117        1.2793093387
 C         -2.4622351457        2.0972427511       -0.9988117347
 C         -1.5458108508        1.0130788531       -1.5882591682
 C         -0.1935272235        0.9791096002       -0.9881252928
 N          0.4793219626       -0.1274338451       -0.6815990652
 C          1.8648638440       -0.0517441359       -0.2870395598
 C          2.8165996181       -0.3610177301       -1.4591219174
 C          4.2414813596       -0.2321091929       -1.0001552705
 C          4.8992769423        0.9839366369       -1.0674214462
 C          6.2015661407        1.1123838066       -0.6082552431
 C          6.8694813721        0.0245519377       -0.0666701208
 O          8.1306499442        0.0336506741        0.4094359371
 C          8.8745128660        1.2284312106        0.3531604976
 C          6.2015406130       -1.2274536087        0.0086963792
 O          6.9247271257       -2.2331275329        0.5456155241
 C          6.3562056436       -3.5174086104        0.6302400399
 C          4.9005148362       -1.3317686600       -0.4546929751
 C         -0.0833616147       -1.4426499825       -0.8703921462
 C         -4.1442692311        2.6881054818        0.8019678149
 C         -4.9590930117        2.3160128819        1.9731978317
 C         -4.1773206717        4.0918714461        0.3303599430
 H         -4.5897721153       -1.1983410157       -0.4762586788
 H         -6.7952641998        2.1504520030       -2.5403054269
 H         -8.0299078794        1.3845698139       -1.5039741961
 H         -7.7530377821        0.7759570495       -3.1545070035
 H         -4.2204752967       -4.3173612995        2.6253094663
 H         -4.2571884160       -5.7407966001        1.5393488251
 H         -2.7178641913       -4.8893848796        1.8509482070
 H         -2.3231496180       -2.4768111416        2.1113828708
 H         -2.0125851320       -0.1640104075        1.9477812985
 H         -3.3104974051        2.1943566874       -1.6742735651
 H         -1.9289797704        3.0487196947       -0.9755751530
 H         -2.0406839241        0.0459717305       -1.5212709025
 H         -1.4304514009        1.2482953017       -2.6553463340
 H         -0.9005714267        1.6627461298        0.9998689325
 H          0.3485975881        1.9097450838       -0.9127987672
 H          2.0454949569       -0.7632497078        0.5232389743
 H          2.0809323036        0.9514381164        0.0864337788
 H          2.6174448432        0.3432899953       -2.2685967612
 H          2.6283851687       -1.3708373828       -1.8255390675
 H          4.4037660700        1.8440987907       -1.4916905100
 H          6.6902756405        2.0700114323       -0.6811573643
 H          8.4077426545        2.0198717916        0.9477900920
 H          9.0026218862        1.5727376562       -0.6775339371
 H          9.8475768584        0.9863762711        0.7761031671
 H          7.1263465739       -4.1495642836        1.0678872937
 H          5.4731418321       -3.5242982607        1.2777093639
 H          6.0890192658       -3.9047458246       -0.3580132709
 H          4.3861435434       -2.2789950151       -0.4086684326
 H         -0.2489224492       -1.6535772075       -1.9292059092
 H         -1.0365314871       -1.5324465429       -0.3443219968
 H          0.6027669491       -2.1851268971       -0.4713314063
 H         -5.3485407939        1.7760984087       -0.8055882241
 H         -4.3607133314        2.4994380308        2.8742437355
 H         -5.2141527986        1.2578955990        1.9732745891
 H         -5.8638851107        2.9149513180        2.0399264917
 H         -3.3612653568        4.6521550061        0.8003480467
 H         -4.0458065403        4.1842291725       -0.7468126497
 H         -5.1102395127        4.5724758604        0.6139411371
 H         -1.1930155979        2.7315663227        3.0727501770
