72
 energy: 3.168538412028 xtb: 6.6.1 (8d0f1dd)
N           -1.48485579428820        2.79432119786784        2.22265792094601
C           -1.56865593220342        2.08878568953265        1.17760295500269
C           -2.76312577052723        2.02214705857613        0.26275725362427
C           -3.35911626259342        0.62718567797997        0.33988500265164
C           -4.34485659651079        0.23238601426089       -0.56680870388261
C           -4.90616722795188       -1.02903506552851       -0.52072096398808
O           -5.87321245880807       -1.49253535697482       -1.36461663769937
C           -6.41679216582375       -0.61328546982925       -2.31475185027557
C           -4.47712308759248       -1.94733907624673        0.46193131071090
O           -5.08522472083901       -3.16858920743269        0.42801449522440
C           -4.76553782208323       -4.10045587707021        1.42786010487101
C           -3.50600352999655       -1.55350856332155        1.36280038866694
C           -2.95333434032303       -0.27947414354932        1.30053344691298
C           -2.22040766838040        2.26225078428246       -1.17532089684015
C           -1.33987632193039        1.12103240621454       -1.73185512265232
C           -0.05303813460185        1.00523662966620       -1.00015854057634
N            0.64446276522139       -0.16461457309023       -0.62014540645965
C            2.08300449038810        0.08945721879161       -0.19552600276699
C            3.04231558954778       -0.38880367983314       -1.28122345003878
C            4.44904609706467       -0.29474758676474       -0.77774021733476
C            5.19314905188291        0.84334730745685       -0.97825796812006
C            6.51305775066796        0.89427891792555       -0.56264606809825
C            7.09414655955069       -0.18929683121184        0.06898432597885
O            8.38174366990250       -0.25530277404829        0.50045106916387
C            9.20743514963824        0.85368922279900        0.27154728741622
C            6.32577316641046       -1.34844996639185        0.31065790907266
O            6.98794996854894       -2.36071988741814        0.94060435680240
C            6.30241018857199       -3.56327570843570        1.17957627044325
C            5.01174495092712       -1.38353657097495       -0.10916845916958
C           -0.12402984423698       -1.40696069223704       -0.70925835409498
C           -3.87373664812822        3.05251087396465        0.60222886999857
C           -4.47854543408433        2.77244380343781        1.97640053440397
C           -3.38299179989873        4.49912646004132        0.54871363916033
H           -4.67531078164901        0.92731482331218       -1.32089329737375
H           -6.86499574626775        0.26728672270843       -1.84169362275133
H           -7.19274963328262       -1.18250900931541       -2.82376859954350
H           -5.66811350940839       -0.29184595634962       -3.04719921805287
H           -4.98773297954675       -3.71232933270046        2.42792576848411
H           -5.39620739660213       -4.96583387667748        1.22933868524440
H           -3.71326269578630       -4.40239255368975        1.38240934615997
H           -3.16858315189460       -2.22958781805867        2.13245035667707
H           -2.21400020126424        0.00024999476994        2.03357194059436
H           -3.06535120317530        2.41696466590235       -1.85222409227317
H           -1.63372455959326        3.18500449665325       -1.17961792016259
H           -1.91110246134257        0.19781564221362       -1.69498931177396
H           -1.13048825771053        1.35750415125126       -2.78691161657700
H           -0.72717857514914        1.52962856616399        0.71822323665971
H            0.59154839694142        1.87034296645274       -1.07636859889656
H            2.26212835665714       -0.50430190119292        0.71900602459836
H            2.32545135932424        1.15421067770282        0.02886067698370
H            2.90019716102591        0.23322928636327       -2.16418615523982
H            2.79433621071232       -1.41641879266354       -1.54209053833939
H            4.75541315141956        1.69306048946867       -1.47797406958830
H            7.07626514797379        1.78878594030757       -0.75990308936948
H            8.84545813711941        1.74300090872076        0.79478851928501
H            9.30218192661960        1.07606369012902       -0.79695822484240
H           10.17840769507774        0.57201282841536        0.67289682295038
H            7.02485994136025       -4.21616741254129        1.66508178324699
H            5.44609482064472       -3.41995867140987        1.84722887935021
H            5.96046537563801       -4.02984522715002        0.24896973865475
H            4.41111932399581       -2.26581788735656        0.05969370178070
H           -0.30820215945149       -1.72449597470854       -1.74725345145841
H           -1.13028827184941       -1.29660948913830       -0.26583984240598
H            0.39030900014079       -2.20185264590329       -0.17865668140582
H           -4.66593229250161        2.93734020538325       -0.14886039000501
H           -3.71954716902098        2.89993454343307        2.74029530819290
H           -4.86270414555584        1.75651564222527        2.02762485155061
H           -5.29652849216650        3.46388555662286        2.16836351989534
H           -2.57182269521384        4.64800184027922        1.25444115440969
H           -3.04448287281048        4.77770046828520       -0.44645186948968
H           -4.19661043356259        5.16612462851754        0.82415662765986
H           -0.57667186005508        2.72448956240072        2.68462343857591
