72
 energy: 20.563697369309 xtb: 6.6.1 (8d0f1dd)
N           -1.36646579271750        2.70156549395575        2.06336567111628
C           -1.58104350621845        1.87172187741671        1.15170288407246
C           -2.81808951272208        1.88534322983804        0.28604109528085
C           -3.50351758934011        0.53544191159437        0.37969480133579
C           -4.47774276244263        0.17010242124817       -0.55247214808355
C           -5.11477152650612       -1.05555194151534       -0.49293160324268
O           -6.07142284314135       -1.49429895998848       -1.36599608718179
C           -6.49507755608601       -0.63093602614495       -2.39034956997318
C           -4.77986222927707       -1.96534043115771        0.53418988144742
O           -5.45049517896136       -3.15808717133053        0.50585825682756
C           -5.16868052238047       -4.09921523167060        1.51002458057942
C           -3.83345421350261       -1.59024506797986        1.46919346910070
C           -3.20437281104118       -0.35344569591522        1.39313198921249
C           -2.29895573862735        2.14179820869659       -1.15615987270931
C           -1.67046863234657        0.93944754104952       -1.87166498196509
C           -0.33789840161353        0.47535097231039       -1.31557809730872
N            0.03867384429478       -0.68524187172678       -1.01421629096908
C            3.24139076933466        0.73548635913301        0.05214386898333
C            3.45066462025096        0.18237857718034       -1.30730998001806
C            4.65118367722334        0.28665141540576       -0.37343106306539
C            5.65232263365309        1.27938086308290       -0.68498189017388
C            6.97458133974984        1.08301365369688       -0.41522770911634
C            7.45397031161318       -0.11870174247404        0.11352601165299
O            8.76215472876653       -0.42553768691039        0.36836694877504
C            9.72708155511761        0.53750945638463        0.06131589947189
C            6.51659398465004       -1.14883941159398        0.41490667858296
O            7.07763739664642       -2.27281604432011        0.94622092263214
C            6.24574804822241       -3.35546367700473        1.27924292988073
C            5.19229254895532       -0.97062158880773        0.15463691866569
C           -0.81172115254166       -1.83438257976773       -1.08680269736698
C           -3.86186897745766        2.97414598733102        0.67882614371112
C           -4.38786879606333        2.76143406325922        2.09816163474463
C           -3.32413747100867        4.39627796969410        0.54108052834864
H           -4.73944813971813        0.86481834577110       -1.33377453585841
H           -6.92728662730904        0.29111351502365       -1.98629141901046
H           -7.25904601316435       -1.18587838063391       -2.93369200658416
H           -5.67722089466718       -0.37973843343914       -3.07439199873592
H           -5.40283038945729       -3.70598111130315        2.50514115710956
H           -5.81597277421643       -4.94718667859523        1.29271186932391
H           -4.12235327693099       -4.42535746468123        1.48910876576295
H           -3.55975093832484       -2.26133824451860        2.26960821640504
H           -2.47888824078802       -0.09687539175103        2.14797593085931
H           -3.13912076689841        2.50923167559289       -1.75141049652153
H           -1.56580918577582        2.94761184084994       -1.11016162880624
H           -2.36755130276716        0.10982231746641       -1.89858565550384
H           -1.48771671979810        1.24187449966358       -2.90749246425602
H           -0.88210311091606        1.07385654248120        0.86400393793427
H            0.40820578253991        1.26018912836936       -1.23047713304915
H            2.77188718949630        0.08934821597101        0.78547153507382
H            3.09157106831166        1.80429113356832        0.16786852430230
H            3.40528772470246        0.87596337033715       -2.12516808250317
H            3.10441300999932       -0.80321561166806       -1.56091224915861
H            5.29678202987283        2.19904170358913       -1.11457560660015
H            7.65172787258839        1.88703049226337       -0.63637939895828
H            9.62714523244066        1.44005080078870        0.67433116702451
H            9.69979864522634        0.81512246801381       -0.99903330607441
H           10.67327380496792        0.05016535411067        0.28956544475090
H            6.91042458364589       -4.11578831783020        1.68583287849469
H            5.50356025579895       -3.08224400047243        2.03806840129437
H            5.73328059034273       -3.76003071853628        0.39829191190302
H            4.47840449026951       -1.75302552105204        0.34878285071580
H           -0.81831466732235       -2.20005991864438       -2.11666791253714
H           -1.84625892640065       -1.63760962081343       -0.78843211153982
H           -0.37755973304882       -2.61959083453886       -0.45638215622075
H           -4.70961241859195        2.86135745372785       -0.00981729425470
H           -3.57909434190898        2.89547322428887        2.81026234021240
H           -4.79987032943414        1.76033655733117        2.21133347511094
H           -5.17323830312496        3.48424872696483        2.31410699701499
H           -2.44503687115873        4.51643903783537        1.16369330618022
H           -3.07045912478106        4.63269709152515       -0.48898464504921
H           -4.08294576674937        5.10151426630021        0.87121143188204
H           -0.48713621414641        2.60834755783370        2.55940392554453
