72
 energy: 39.214082356764 xtb: 6.6.1 (8d0f1dd)
N           -1.43272941958760        2.70714001114658        2.13734261824358
C           -1.60026424582207        1.91758250524363        1.17583861418851
C           -2.81650335171491        1.91710424571701        0.28644174421721
C           -3.47033197689859        0.55672546557761        0.37389067270546
C           -4.44875565210905        0.18624158578214       -0.55277671250073
C           -5.05602101461002       -1.05125350444346       -0.50074384182299
O           -6.01873868219023       -1.49365645196468       -1.36033378136670
C           -6.47319726646107       -0.62603184301537       -2.36614206987674
C           -4.68620188983129       -1.96343505552673        0.51364978918252
O           -5.33797012760109       -3.16036138275838        0.48494667229788
C           -5.04271460521117       -4.10017508693361        1.48609849249284
C           -3.73104903014703       -1.58478520348919        1.43932073579096
C           -3.12773322253966       -0.33510801030387        1.36949262304266
C           -2.30990547037792        2.17913045016996       -1.15765242516727
C           -1.59496536033601        1.00187879852696       -1.86258497508546
C           -0.24720565863314        0.59386540273168       -1.24947799865568
N            0.25446958170030       -0.56807938342196       -0.97054340262960
C            2.87163060952415        0.62932906513687       -0.02035175575960
C            3.34331619897592        0.03857386773956       -1.28525498540725
C            4.65724346220842        0.10243403156951       -0.56812550235163
C            5.52591246461568        1.15713571375646       -0.78670271821639
C            6.84838631344782        1.03083442491324       -0.45401788934022
C            7.35272653555185       -0.13729328356891        0.09891589869838
O            8.65655165938680       -0.37088398072757        0.41408721093550
C            9.57475084958472        0.64144668606321        0.13113913103825
C            6.46875514015938       -1.20171248032107        0.39202756865606
O            7.06360968384247       -2.29202218120115        0.95689251850895
C            6.26949053267917       -3.41573476685755        1.25030344557815
C            5.14310730172090       -1.08404175770821        0.05994085895572
C           -0.57749688793644       -1.74359920361381       -1.00195138697830
C           -3.87607289303711        2.98961374180066        0.65953253904572
C           -4.42146448944403        2.76125141431717        2.06498201931968
C           -3.34819312779569        4.42034485448857        0.54439076094793
H           -4.71969848274545        0.87841673577091       -1.33310942361024
H           -6.90902910617335        0.28369765754315       -1.94108819347168
H           -7.24101543632542       -1.18011135945882       -2.90205268296142
H           -5.67384275968930       -0.35562365046483       -3.06480351670023
H           -5.27285816973034       -3.70841919558486        2.48214179921440
H           -5.68415753143774       -4.95544927399572        1.27912939207596
H           -3.99437135320466       -4.41838997018080        1.45642958162558
H           -3.43704753020827       -2.25387394429400        2.23033821700394
H           -2.39779535085131       -0.06450503760010        2.11553761987650
H           -3.16009808245924        2.51270329008732       -1.77069063400194
H           -1.60064442757570        3.01411558314148       -1.12096569985567
H           -2.23903271188568        0.13202974120399       -1.85188223080270
H           -1.45143519036625        1.28432320172460       -2.92495632881281
H           -0.84316863187634        1.18937631592579        0.86660851727077
H            0.46340584078820        1.42822859584220       -1.30914964252246
H            2.63301605183610       -0.07233685633586        0.76809064644783
H            2.80530985938078        1.69129817101704        0.13680950701593
H            3.25898047555438        0.69838124239147       -2.13100770458201
H            3.08028187643793       -0.97075738546466       -1.59542143705393
H            5.13201908994627        2.04811821171663       -1.23631986119629
H            7.48720640811357        1.85941406185435       -0.67369444907110
H            9.38427578720020        1.54299188480394        0.71686462610431
H            9.58108002570172        0.89797465778024       -0.93242108403682
H           10.53811344389461        0.22491510691874        0.40938222259384
H            6.94572199537031       -4.14783280985749        1.68547367002184
H            5.48695268455096       -3.18413516013288        1.97853347774877
H            5.80974331966224       -3.84220777888564        0.35312487598131
H            4.45488951995541       -1.89857924863846        0.24428176966352
H           -0.62900241800632       -2.08554623137001       -2.03748635384768
H           -1.60227390142751       -1.51938449247537       -0.68493092588412
H           -0.13945415120627       -2.52749969117637       -0.37152761292475
H           -4.70897055142172        2.87969011048500       -0.05052169782327
H           -3.62100966419397        2.89251243142715        2.78553563667808
H           -4.82425461662261        1.75607424106525        2.15721444812234
H           -5.21549035147567        3.47490694310277        2.27647630394414
H           -2.48930571267967        4.55085270688334        1.19368325644902
H           -3.06502232578465        4.67321808147376       -0.47436209910621
H           -4.12123712995878        5.11780483998194        0.85861687891191
H           -0.52483357727943        2.61838760307649        2.60933529732697
