72
 energy: 40.592732051682 xtb: 6.6.1 (8d0f1dd)
N           -1.42967205328116        2.71770969497034        2.14448296894885
C           -1.60140753700809        1.93554438615734        1.17843944733046
C           -2.81165139812514        1.92503029267866        0.28205467952609
C           -3.46143773593085        0.56308210510303        0.37199901868367
C           -4.44012532201710        0.19193385639681       -0.55372003854407
C           -5.04235702681395       -1.04782952283893       -0.50231797411827
O           -6.00441763156271       -1.49229008779542       -1.36066246275420
C           -6.46739080722958       -0.62452949942406       -2.36218893521139
C           -4.66678220976128       -1.96036312809853        0.50961074757712
O           -5.31467527982432       -3.15818512035414        0.48078941812802
C           -5.01746902247241       -4.09898599410869        1.48083395919717
C           -3.71038303663069       -1.58161991763707        1.43344431732690
C           -3.11245808564882       -0.32910145973340        1.36428637529600
C           -2.30326387642960        2.18279964858104       -1.16308710155920
C           -1.57332035135711        1.00922791633041       -1.85328012547402
C           -0.23174884085771        0.62418294922572       -1.23124492930459
N            0.29493275279317       -0.53632296168563       -0.95259828713144
C            2.76568225035425        0.60128405580112       -0.04795122488710
C            3.31835380812741        0.00490900835498       -1.27733940841970
C            4.65713013055785        0.05352531317505       -0.60443864996057
C            5.49623759522508        1.12444108501972       -0.80386137812855
C            6.82101808004757        1.01891054219644       -0.46092332065343
C            7.33009986828566       -0.14286088467352        0.09458246096387
O            8.63133397046185       -0.35887360384777        0.42069271246736
C            9.54304978366555        0.66151631243922        0.14474122055267
C            6.45933517712671       -1.21651535455690        0.38583933453997
O            7.05863188717745       -2.29950476445164        0.95732923362883
C            6.27200034621319       -3.42945863990345        1.24356962590222
C            5.13366455137546       -1.11312643709714        0.04162054332459
C           -0.53231880798185       -1.71598959409214       -0.98498795003259
C           -3.87630365270498        2.99548387698291        0.65333340095164
C           -4.42524371449348        2.76353777977129        2.05625971059929
C           -3.34998480480497        4.42761537806044        0.54393838124462
H           -4.71652455211431        0.88448194271538       -1.33168806292140
H           -6.90534844747677        0.28249417417571       -1.93297238925552
H           -7.23541287950556       -1.18027813210178       -2.89601033571556
H           -5.67265674096454       -0.34944177672852       -3.06395724408247
H           -5.24681239001362       -3.70790993058344        2.47756457839004
H           -5.65778715823202       -4.95564005040445        1.27498739344855
H           -3.96880789649527       -4.41597687741068        1.44993845773800
H           -3.41230760429524       -2.25196725821082        2.22182257276414
H           -2.38137152990719       -0.05753416976763        2.10936185449508
H           -3.15218410100723        2.50520288365379       -1.77760454234249
H           -1.60694088451267        3.02735879926541       -1.12905989921821
H           -2.20817375651874        0.13236713363707       -1.84516887400828
H           -1.42258559713470        1.29155083979715       -2.91298770295661
H           -0.83622039200763        1.22083949056840        0.86220036449706
H            0.47608200190169        1.46417320630704       -1.30109177666595
H            2.59637724203487       -0.10547772674337        0.75135875817440
H            2.76666761238421        1.65783073096010        0.12532587055812
H            3.23080683940294        0.65529018457960       -2.13202458814949
H            3.05667608824907       -1.00784969346123       -1.58792062128873
H            5.09696408101732        2.01269422112876       -1.25689792495866
H            7.45128290512324        1.85445368781347       -0.68274668230432
H            9.33605525012339        1.56280649922214        0.72465545200822
H            9.55752543183068        0.91506478661646       -0.91986854644054
H           10.50872162655489        0.25759059479128        0.43586006100772
H            6.95146282447872       -4.15619675871325        1.68122707595206
H            5.48326770260002       -3.20453595459778        1.96660803838452
H            5.82227555972640       -3.85858966915000        0.34286182626595
H            4.45197673563930       -1.93297255404978        0.22538048465357
H           -0.60022834188229       -2.05489598691156       -2.01689096263043
H           -1.55526919848964       -1.49865364493292       -0.66257023940234
H           -0.09060971579466       -2.49169372312781       -0.36008882592117
H           -4.70567640477019        2.88575199643546       -0.05947126632962
H           -3.62894380825521        2.89462797253429        2.78089569997341
H           -4.82869643163826        1.75923184646790        2.14631578857933
H           -5.22015748244651        3.47554638190771        2.26509314616510
H           -2.49633329184221        4.55924698708148        1.19927501494215
H           -3.06249799985938        4.68268413636346       -0.47259017831419
H           -4.12588945830995        5.12353068071921        0.85384201311543
H           -0.52804330744793        2.62132784907542        2.61547766918864
