72
 energy: 40.959782181219 xtb: 6.6.1 (8d0f1dd)
N           -1.44989438834758        2.75908026259515        2.18662910951369
C           -1.57339812598588        2.04027828321758        1.16618489545639
C           -2.78349853437299        1.98402243982343        0.27118132979117
C           -3.40249677446458        0.60427330999507        0.35324948615639
C           -4.38534083195702        0.21691482327664       -0.56038599025016
C           -4.96313631097732       -1.03677929272454       -0.51207049194783
O           -5.92724779787654       -1.49481718920626       -1.36343587326165
C           -6.43857130444049       -0.61736634751217       -2.33291156727167
C           -4.55516541123751       -1.95281626336242        0.48165046364836
O           -5.17744763082423       -3.16749205671562        0.44776099788860
C           -4.86635879939623       -4.10046848458445        1.44973186863949
C           -3.58946334109413       -1.56272986306613        1.39121001380390
C           -3.01915278512494       -0.29687550865474        1.32594783967486
C           -2.25226657153161        2.23069472775278       -1.17011129216284
C           -1.44499710958875        1.07581096753514       -1.79352542045608
C           -0.12154402970952        0.82409274822995       -1.15185321243189
N            0.47536243765458       -0.32264418236536       -0.80514782165192
C            2.41542364708914        0.33921047213548       -0.12806465921867
C            3.15871774680022       -0.22115947848862       -1.28092114803085
C            4.54487949457236       -0.15936231032033       -0.72151486224917
C            5.31744507245288        0.95713558620841       -0.91354293290463
C            6.64050684329543        0.94641210639835       -0.52210555357720
C            7.19145951435927       -0.17031801922726        0.08005352936700
O            8.48978279206229       -0.29919892101150        0.47444444995627
C            9.34675063545512        0.77689168651822        0.22445645131226
C            6.38128641380861       -1.29389701073083        0.34346991309442
O            7.02243907450796       -2.33721784781773        0.95232074880395
C            6.28977299325153       -3.50969306150721        1.20636952771163
C            5.06170386198082       -1.27525115344340       -0.05137556147853
C           -0.30721346128799       -1.54198233190705       -0.82463330988193
C           -3.87715357682195        3.02833301298457        0.62253610241861
C           -4.45968445148977        2.76708097747876        2.00913484793253
C           -3.37161638566718        4.46897880058753        0.54769050869951
H           -4.69206586496047        0.90905145116496       -1.32672289122630
H           -6.88079970559893        0.27553393145871       -1.87713907209450
H           -7.21286842213709       -1.17954017727904       -2.85137953575623
H           -5.67036917200384       -0.31548797758899       -3.05326666021385
H           -5.09135340163671       -3.70909426332624        2.44809452795836
H           -5.50037219858751       -4.96305113336654        1.24929460359542
H           -3.81522114359637       -4.40666964684731        1.41040204174132
H           -3.26597072844958       -2.23814204903689        2.16702732701810
H           -2.28137201396852       -0.02181482749629        2.06088971671539
H           -3.10334036530064        2.45868980907326       -1.81779871012850
H           -1.61579705253475        3.12254989317192       -1.15471053493689
H           -2.03676510926139        0.16870527663082       -1.76624821144596
H           -1.24905026505567        1.33411687647667       -2.84913516848746
H           -0.76379661485002        1.40828903564398        0.78380742017748
H            0.54416108014133        1.69792942959534       -1.18716004198886
H            2.41272572765304       -0.32739149155245        0.72931094478095
H            2.49330051296559        1.40371450463882        0.03754318397949
H            3.03644076527787        0.40340756681523       -2.16046917630475
H            2.88835305822938       -1.24220107610119       -1.55200557034027
H            4.89211328327473        1.82281425816418       -1.39396020971057
H            7.22942911441462        1.81837702854321       -0.73166688345449
H            9.04385832922655        1.67280293977483        0.77207639225866
H            9.40644604194874        1.01127639571308       -0.84478807499306
H           10.31979247369374        0.44947307417734        0.58443368073455
H            6.99370982620658       -4.19392798307265        1.67510359333035
H            5.45583584850296       -3.33138065358940        1.89387090401272
H            5.90235777803339       -3.96219220336195        0.28563506304071
H            4.42406897081115       -2.13144373578483        0.12623000295455
H           -0.43387337158604       -1.86508722681273       -1.85986222608291
H           -1.31706203502348       -1.38894463636574       -0.42672437485182
H            0.19976439411969       -2.32226023258054       -0.25154639475536
H           -4.68437254806209        2.91525741952546       -0.11412466018266
H           -3.68142330243242        2.89538738882999        2.75267488658433
H           -4.84973155793171        1.75441484002171        2.07585398278531
H           -5.26889445550046        3.46695532315444        2.21068015478084
H           -2.54408512519907        4.60949680603088        1.23521100705272
H           -3.05006374301239        4.73865776503025       -0.45550140821302
H           -4.16978264130289        5.14790835528903        0.83720742535011
H           -0.54136346016995        2.67811460650468        2.63407634042261
