72
 energy: 41.611632878930 xtb: 6.6.1 (8d0f1dd)
N           -1.43768537660955        2.75248206304779        2.16377977907588
C           -1.60943717195555        1.97200355523449        1.19466362597756
C           -2.80507205247621        1.94354994291150        0.28056054767503
C           -3.44573051260720        0.57820096004486        0.36431971483053
C           -4.42565065320531        0.20228361521744       -0.55829118180769
C           -5.01889529353726       -1.04303260205137       -0.50490995330671
O           -5.98248382338973       -1.49202063734804       -1.36147379897156
C           -6.46042314170534       -0.62078382922623       -2.35257350642218
C           -4.63260982009914       -1.95697306755210        0.50001554358161
O           -5.27220736237241       -3.16433338672871        0.46855379640500
C           -4.96772777896355       -4.09901114368856        1.47076752873640
C           -3.67178824172958       -1.57453730355258        1.41846862897122
C           -3.08401355818799       -0.31759603802194        1.34921652682210
C           -2.28391679671480        2.19504532885840       -1.16310410888003
C           -1.53819067800956        1.02432359080000       -1.82870335300540
C           -0.20270543778168        0.68568783200919       -1.20796616194335
N            0.36677179872871       -0.47080057746093       -0.90296352565852
C            2.62719329584085        0.53307585553560       -0.08551159385820
C            3.25740082673596       -0.06196692928965       -1.27452759123867
C            4.62311579329355       -0.01904032539017       -0.64919783222911
C            5.43630908342162        1.06775274730242       -0.84460556303329
C            6.76384650433817        0.99345993922249       -0.48762258649751
C            7.28742267834807       -0.15339228048370        0.08641069539903
O            8.59071821593048       -0.34323840635607        0.44228501319533
C            9.48082012427269        0.69898708949711        0.17493563409542
C            6.43289676166554       -1.24064207564210        0.37034601586892
O            7.03977776646865       -2.31030029124590        0.95537334631346
C            6.27430973824321       -3.45659565543978        1.23149663779690
C            5.10690145623783       -1.16481570352749        0.00998729457546
C           -0.44719179029205       -1.66321767450894       -0.93535740466125
C           -3.87941357842593        3.00800844944253        0.64316214340642
C           -4.43688738639477        2.76446718870572        2.04113112147320
C           -3.35676774059174        4.44149531828859        0.54534388608779
H           -4.71255742602330        0.89500995356518       -1.33129612052251
H           -6.89874084003229        0.28303342513846       -1.91463531128804
H           -7.23268417959798       -1.17729456050998       -2.88020273479088
H           -5.67369672321017       -0.33833558425543       -3.06091209182463
H           -5.19494673613225       -3.70643673674968        2.46818614672374
H           -5.60520920541468       -4.95867246131122        1.26856362247761
H           -3.91776494749198       -4.41114299152579        1.43737126740701
H           -3.36303194223392       -2.24762139639429        2.20215403838619
H           -2.34917266544449       -0.04492611617383        2.08887947238167
H           -3.13315769043418        2.48251936855495       -1.78837914653406
H           -1.60290579541790        3.05480952169227       -1.13555752905923
H           -2.15445030851461        0.13528353732041       -1.81975767428202
H           -1.37197774552322        1.29767583485541       -2.88485599818958
H           -0.82387899644346        1.28874679459969        0.85339902650928
H            0.49779481790807        1.53822022400315       -1.27249858331794
H            2.52223202151130       -0.17355344692338        0.72662998878043
H            2.68292708409823        1.58479119365079        0.10213346690925
H            3.16880620911939        0.57156989101824       -2.14686229582001
H            3.00302210158996       -1.08311487712487       -1.57377892635616
H            5.02850375400880        1.94948046292575       -1.30787821693885
H            7.37785958007475        1.84282567694232       -0.70815811593828
H            9.23973571630667        1.59921773619637        0.74558673705675
H            9.50981339353432        0.94718156322278       -0.89211037245766
H           10.45076533066709        0.32200996556640        0.49202685586159
H            6.96355018958465       -4.16771884387947        1.68136934983711
H            5.46826176680926       -3.24584137861376        1.94127922943441
H            5.84583694949679       -3.89504528484515        0.32316333858998
H            4.43923994799570       -1.99711674175159        0.19526936885341
H           -0.53558300905514       -1.99233193147298       -1.97073942511006
H           -1.46723439097619       -1.46221061569301       -0.59173181713021
H            0.01527723077910       -2.44020018681305       -0.32369886170790
H           -4.70018597727080        2.89686984161253       -0.07683972756848
H           -3.64622054262778        2.89517979775163        2.77167314379677
H           -4.83566946628682        1.75598521642631        2.12352450449128
H           -5.23654118344940        3.47231043154863        2.24938544054772
H           -2.51269212534342        4.57359036615865        1.21250587995087
H           -3.05748605847464        4.70111737569869       -0.46671331817846
H           -4.13844411734939        5.13295523377545        0.84889931901985
H           -0.54149587991488        2.64694052987638        2.63875253254947
