72
 energy: -5.584691484357 xtb: 6.6.1 (8d0f1dd)
N           -1.48938110265100        2.78378862402226        2.22948337684376
C           -1.55468102613388        2.13753464774575        1.15264474918351
C           -2.75053027330123        2.05112804416510        0.24795759871507
C           -3.32539502113310        0.64311000905362        0.32861660756689
C           -4.31311118295311        0.24271216133015       -0.57401988093642
C           -4.86273219795142       -1.02378859758956       -0.52807834268614
O           -5.83236945627982       -1.49009585463968       -1.36428696517370
C           -6.40063642767829       -0.61048307637392       -2.30007806153249
C           -4.41751181491600       -1.94351486686353        0.44767105907217
O           -5.01496063913944       -3.16752280505618        0.41474451810702
C           -4.68912074306691       -4.10009911371802        1.41280522776346
C           -3.44276543165178       -1.54572590797066        1.34216935424192
C           -2.90305924722214       -0.26536318858028        1.28191843025685
C           -2.20197204994473        2.29242689172642       -1.18391765157492
C           -1.28262409554363        1.16452712413443       -1.68377106183062
C           -0.01166939789678        1.09771732715530       -0.92052725792999
N            0.63513689297328       -0.07442256046980       -0.57740168349878
C            2.01806688965597        0.00059329112143       -0.17181941246038
C            2.96098976394933       -0.50184801710056       -1.27954902724326
C            4.38073546744966       -0.39848104276820       -0.82125091230502
C            5.10384548800525        0.75944488767904       -1.02446053704202
C            6.41736261317762        0.85583688585662       -0.59182584618063
C            7.02084422148450       -0.20376355675594        0.06057254129297
O            8.30210256307818       -0.22216798832449        0.52036578246444
C            9.10356801113391        0.90984268702417        0.30680604285409
C            6.28360429021369       -1.38755824657038        0.28824448100513
O            6.96167133159078       -2.37773096201729        0.93316197977118
C            6.31238383158552       -3.60195759383769        1.15891649940031
C            4.97611641736227       -1.46606581894848       -0.14831305805728
C           -0.06774489165622       -1.32841334683344       -0.64349690236602
C           -3.87001943415497        3.07169526026713        0.58811632742981
C           -4.49089754496656        2.77496663367853        1.95166157419266
C           -3.39081524017189        4.52215618696335        0.54848098887540
H           -4.66273512596647        0.94068186449206       -1.31694918226324
H           -6.85321457853857        0.26054159763501       -1.81421279726655
H           -7.17765041805387       -1.18525878022230       -2.80163609406298
H           -5.66741994507025       -0.27463304736823       -3.04164866419326
H           -4.90940115899112       -3.71451852585939        2.41397300643411
H           -5.31782656423688       -4.96692429691444        1.21502515774823
H           -3.63637234601762       -4.39912574364755        1.36221789341358
H           -3.09459085714144       -2.22145061509884        2.10751382607434
H           -2.16280654757178        0.01720139215750        2.01429830596008
H           -3.03667632149707        2.39309059313062       -1.87908823928311
H           -1.64693574215096        3.23264664279460       -1.19746681503076
H           -1.83014898668153        0.22397945598278       -1.64255548117591
H           -1.03857363087697        1.37337409903235       -2.73350700166018
H           -0.69512837736330        1.62150457192799        0.65837083294554
H            0.63158811888976        1.96097427437585       -0.97506324180949
H            2.15584925354091       -0.62191595965948        0.72376690810565
H            2.30615446080194        1.02857892311686        0.08545261616130
H            2.80038911706952        0.10939527913284       -2.16879147212713
H            2.70704738890380       -1.53490618443397       -1.51807112414115
H            4.65336663564069        1.59452410376618       -1.53955572788217
H            6.96168930600821        1.76589777431743       -0.78231131726833
H            8.69969158929248        1.79400519351171        0.81057740267198
H            9.22609617807026        1.12450030303867       -0.76030734921653
H           10.07156648560467        0.66180678941054        0.73837298059200
H            7.04745688997094       -4.23223528249722        1.65649928978578
H            5.43969679453169       -3.48539715688584        1.81073812049734
H            6.00474278810068       -4.07762476313134        0.22119998947693
H            4.40345356163911       -2.36722910893333        0.01139513774067
H           -0.24214215891951       -1.64860368663394       -1.67787453883262
H           -1.04496252094558       -1.25713608902372       -0.15062657251373
H            0.51858579185790       -2.08977586474847       -0.13642358119001
H           -4.64945069563348        2.95258681404945       -0.17401035269232
H           -3.74896209234943        2.90247933529757        2.73287924389846
H           -4.87134250164840        1.75713319780062        1.99083810963525
H           -5.31594508533255        3.45929739618388        2.13508634080064
H           -2.59286195081797        4.67849110760283        1.26808121549433
H           -3.04043724023474        4.80720394458766       -0.44055993789632
H           -4.21694660825046        5.17894545110458        0.81063571298390
H           -0.59245898338764        2.75650182147838        2.71316072723830
