72
 energy: 41.873134242156 xtb: 6.6.1 (8d0f1dd)
N           -1.43593596641461        2.75705358980707        2.16242673896063
C           -1.58447057450468        1.99743215908467        1.17801394838052
C           -2.79179255779119        1.96250405751600        0.27633707169816
C           -3.42368501653530        0.59085254211179        0.35826861927125
C           -4.40615565191606        0.20909636839363       -0.55818299859797
C           -4.99201269634941       -1.04026149404090       -0.50841656880056
O           -5.95641401983212       -1.49435187185032       -1.36286073948613
C           -6.45060600007180       -0.61913722705976       -2.34270816243605
C           -4.59407151412331       -1.95489802043291        0.49066811187570
O           -5.22473100449164       -3.16603238791537        0.45785795901275
C           -4.91698122597749       -4.09959914901933        1.45992776141997
C           -3.63049295543989       -1.56867189793414        1.40459319869712
C           -3.05163943631858       -0.30717963256783        1.33761986572980
C           -2.26406685160403        2.21024937793031       -1.16780825829705
C           -1.49086767940954        1.04614035069335       -1.82076811560152
C           -0.16534800535534        0.75269303695216       -1.18366190757173
N            0.42331342624841       -0.39879887912377       -0.84115581708865
C            2.51754363065520        0.44442064624624       -0.11217613069970
C            3.21426423036086       -0.13938415456261       -1.27750131236736
C            4.58569488266795       -0.08941964289468       -0.68068926077567
C            5.37722378714020        1.01222579679630       -0.87712205356492
C            6.70359267883630        0.96963665389089       -0.50630115529838
C            7.24071405736945       -0.16264082548084        0.08062167402654
O            8.54114303208440       -0.32158731676795        0.45697329929888
C            9.41494120406437        0.73768604793625        0.19982052381653
C            6.40853121129950       -1.26682173426967        0.35746344883228
O            7.03615100569705       -2.32339633534498        0.95498258160423
C            6.28405667798593       -3.48241186397059        1.21885243372456
C            5.08469288456005       -1.22048831873748       -0.01750494479578
C           -0.37158245190796       -1.60496438526833       -0.88412257090624
C           -3.87740436231880        3.01855081146912        0.63441920067133
C           -4.44893946002483        2.76462415679883        2.02641223562604
C           -3.36498966428527        4.45539410475610        0.54735962002296
H           -4.70132768930371        0.90090472603266       -1.32945580267420
H           -6.89077304816089        0.27920078693392       -1.89596305076897
H           -7.22355376487601       -1.17818512453300       -2.86614621923049
H           -5.67306162539437       -0.32697838268942       -3.05716905505033
H           -5.14304427876337       -3.70754244930766        2.45775438533942
H           -5.55281185657371       -4.96070248648009        1.25886906662860
H           -3.86646624248856       -4.40871151965382        1.42338348240197
H           -3.31407084315653       -2.24276184675498        2.18427944852244
H           -2.31481408853965       -0.03351516185402        2.07460261945302
H           -3.11649383867271        2.46676449855656       -1.79546152163522
H           -1.60524555859228        3.08611688443265       -1.14523738313882
H           -2.09771825587484        0.14984628485070       -1.79489884421695
H           -1.31533118185450        1.31252749342872       -2.87536653628055
H           -0.78412908752635        1.34297284154967        0.82137963838528
H            0.52317385190651        1.61278021313489       -1.22748402094080
H            2.47965257549635       -0.24491408126693        0.72291975980407
H            2.58233103596703        1.50059944910420        0.07400234164065
H            3.10504712844714        0.48827524387218       -2.15382838742775
H            2.94145404675638       -1.15821420157733       -1.55822503200135
H            4.96035316330843        1.88509096420351       -1.35023226833398
H            7.30513318365108        1.82967062987186       -0.72324790618515
H            9.14184627516754        1.63535159093983        0.75942120218874
H            9.46075673020772        0.97970276864031       -0.86806559437604
H           10.38649655285597        0.38564582960628        0.53912443735038
H            6.97893349584928       -4.18110909229296        1.67935729063699
H            5.46318920653712       -3.28715422382390        1.91654789977489
H            5.87588543378419       -3.92803790896280        0.30430505345395
H            4.43220647764548       -2.06482622607875        0.16246314954086
H           -0.47485233755647       -1.93269962875351       -1.92043849961204
H           -1.38488206833536       -1.43226166913258       -0.51778542895259
H            0.11104640092061       -2.38037845378179       -0.28642921284661
H           -4.69153437981729        2.90473104754403       -0.09503556994349
H           -3.66373217191984        2.89306709535361        2.76303181530008
H           -4.84351475966130        1.75408060250282        2.10004471320206
H           -5.25321216997410        3.46867023494940        2.23185111506682
H           -2.52863832999100        4.59134601422519        1.22411439216177
H           -3.05462787885422        4.72048054553397       -0.46052520402688
H           -4.15562238175808        5.13958108173924        0.84514222400665
H           -0.55224969140155        2.67289240435368        2.65388595973714
