72
 energy: 41.516400896901 xtb: 6.6.1 (8d0f1dd)
N           -1.44014317716408        2.75775631676853        2.17203026089207
C           -1.57775041949387        2.01604175411338        1.17164186657562
C           -2.78815202644648        1.97312003729737        0.27453377602840
C           -3.41376119133343        0.59749752200764        0.35532136004678
C           -4.39628663413246        0.21307105701421       -0.55997286222383
C           -4.97802827946765       -1.03843959392870       -0.51065892102408
O           -5.94218016230977       -1.49464764023501       -1.36343853819254
C           -6.44504914494109       -0.61831146517516       -2.33806574320177
C           -4.57484606571109       -1.95362877162386        0.48582388336059
O           -5.20117533207729       -3.16660724234265        0.45247720045231
C           -4.89174833393189       -4.09995809328016        1.45448316932537
C           -3.61022099775137       -1.56528711492285        1.39749954989095
C           -3.03595658516839       -0.30147427890374        1.33156957664370
C           -2.25843307736989        2.21927956292381       -1.16789547250018
C           -1.46837918734421        1.05913652449849       -1.80574084748122
C           -0.14193386620822        0.78533737729480       -1.16388989472733
N            0.45039706868786       -0.36209186244032       -0.81615413266813
C            2.46831567441534        0.39371473671810       -0.11921071107217
C            3.18522380649369       -0.17982421349213       -1.27841876718386
C            4.56535483056196       -0.12436525563691       -0.70214867550046
C            5.34721075399124        0.98479774092168       -0.89517058878850
C            6.67230075909602        0.95789200640289       -0.51461898565802
C            7.21679662203313       -0.16677074541829        0.07946611136142
O            8.51632472872638       -0.31052431863254        0.46548972052738
C            9.38189801099368        0.75720767413917        0.21247900914415
C            6.39586750445572       -1.28071747251989        0.35041778660718
O            7.03189723724834       -2.33069874627198        0.95399609346567
C            6.28752033539619       -3.49579777189299        1.21234673919379
C            5.07373860402922       -1.24780877363316       -0.03413782671160
C           -0.34170679869004       -1.57229146970331       -0.85219087788552
C           -3.87741461372422        3.02216664231768        0.62845496057048
C           -4.45432157837719        2.76552436739530        2.01801982974951
C           -3.36835943693934        4.46182408728294        0.54773623282617
H           -4.69754195802175        0.90536238547960       -1.32833300620751
H           -6.88620744738004        0.27734464790633       -1.88681765583969
H           -7.21867055796962       -1.17892643401440       -2.85901893488355
H           -5.67212396792331       -0.32130617931200       -3.05540898043300
H           -5.11724573524811       -3.70822599368866        2.45258944475308
H           -5.52665606412113       -4.96182266104810        1.25372280056243
H           -3.84092172034374       -4.40754535639813        1.41652729129473
H           -3.29004506954001       -2.24010938278209        2.17510000124052
H           -2.29831432476736       -0.02717935878028        2.06715501982106
H           -3.11025557827265        2.46237929217919       -1.80838971167900
H           -1.61052384711851        3.10341838507240       -1.14983592495752
H           -2.06914209691446        0.15817931310602       -1.78007255805969
H           -1.28263849225861        1.32162870923560       -2.86178289695943
H           -0.77348408287449        1.37389472476253        0.80130767751887
H            0.53107749459070        1.65661216387663       -1.21116948395873
H            2.45690945037390       -0.28571072908579        0.72584142800742
H            2.53647999054389        1.45382591391416        0.05714416635769
H            3.06949584645949        0.44578221621586       -2.15645332508021
H            2.91403987419691       -1.20036087878592       -1.55330437769876
H            4.92581042461590        1.85394510524624       -1.37193586051255
H            7.26743829639345        1.82382400013525       -0.72885350213080
H            9.09348933756039        1.65393198462253        0.76616778454924
H            9.43497810024194        0.99539426728252       -0.85618358131969
H           10.35417962140388        0.41751959466530        0.56293047825229
H            6.98604907993019       -4.18797492131795        1.67706382331178
H            5.45956316340350       -3.30850738735710        1.90447924738668
H            5.88940718826306       -3.94468020073086        0.29452962100575
H            4.42880334552746       -2.09826797674043        0.14447424405236
H           -0.46484294016890       -1.89820125809125       -1.88676265180789
H           -1.35354973950697       -1.40995212462544       -0.46657849070070
H            0.15633260369798       -2.34924187389126       -0.26896512239784
H           -4.68786680548494        2.90938910678545       -0.10444798930329
H           -3.67262292020867        2.89401767901910        2.75821825781532
H           -4.84702885337391        1.75410702478112        2.08823404274518
H           -5.26065776387407        3.46772943561656        2.22174724981509
H           -2.53646157877021        4.59967530719292        1.23009803807844
H           -3.05221844387858        4.72949159294228       -0.45761524297690
H           -4.16249469335249        5.14379954714220        0.84146478882413
H           -0.54449083776211        2.67508676856382        2.64227503082317
