72
 energy: 27.127421983708 xtb: 6.6.1 (8d0f1dd)
N           -1.46553566171873        2.76736465225718        2.20338833436089
C           -1.57318220260424        2.05103703780841        1.17171681512946
C           -2.77665537959488        1.99326384730709        0.26884730717883
C           -3.39048972353794        0.61062331615727        0.35003796743578
C           -4.37444224199740        0.22111007528370       -0.56055526859954
C           -4.94788578690778       -1.03467531128893       -0.51329294971014
O           -5.91335391644449       -1.49472646410955       -1.36373501740763
C           -6.43236038997840       -0.61617692722173       -2.32786644346955
C           -4.53517581497798       -1.95095089009938        0.47708504754450
O           -5.15454452984419       -3.16882670861355        0.44297051130658
C           -4.84132887084720       -4.10022839161570        1.44454789797514
C           -3.56796822536940       -1.56051089049299        1.38436146004273
C           -3.00186176045680       -0.29287733688428        1.31942606780060
C           -2.24181753085005        2.23711665673410       -1.17279277410832
C           -1.40221465670071        1.08479313271556       -1.78352279078192
C           -0.10166914335653        0.92277266172666       -1.08650269388811
N            0.63466636088463       -0.26087030415833       -0.68894900015934
C            2.16824888822354        0.19321617858080       -0.20071210025343
C            3.12152315648493       -0.27227086337684       -1.27937058689597
C            4.51593204160918       -0.19125399897500       -0.73162951104131
C            5.28142862828151        0.92708408364474       -0.93017691473784
C            6.60649963694168        0.93308248458503       -0.53173962196622
C            7.16569075854736       -0.17396842820391        0.07847609330022
O            8.45885824703740       -0.28731446068845        0.48012466936521
C            9.31055882459092        0.79677024601677        0.23506599829064
C            6.36604122282245       -1.30777278386247        0.33527864111309
O            7.01154179803916       -2.34197132913137        0.94927021200175
C            6.29152475480698       -3.52338536786987        1.19978751965801
C            5.04610457735485       -1.30013488462001       -0.06655205631727
C           -0.19599291528279       -1.49264174437790       -0.77970958076055
C           -3.87602544997667        3.03364167846900        0.61638213347602
C           -4.46453977195277        2.76875832474099        2.00039754683164
C           -3.37473711524863        4.47611173977526        0.54787784181215
H           -4.68594568675694        0.91322934306860       -1.32504654182112
H           -6.87592419845677        0.27384935494875       -1.86770655211443
H           -7.20742689274647       -1.17989013278101       -2.84394516433364
H           -5.66898061512722       -0.30926636533013       -3.05132825878356
H           -5.06541554646759       -3.70955820612083        2.44348492148638
H           -5.47440113695482       -4.96375319222476        1.24494530228873
H           -3.78971843032185       -4.40551790336026        1.40403801265849
H           -3.24161227220782       -2.23633656031569        2.15899694901155
H           -2.26411969329807       -0.01602887918028        2.05393110694576
H           -3.09168357017908        2.44938428902551       -1.82810236641772
H           -1.61837235111431        3.13738612767612       -1.16057466538793
H           -1.99549448699902        0.17740278893416       -1.75063043779842
H           -1.22327154117261        1.34570417082746       -2.84153158666366
H           -0.75375973605459        1.44051441688582        0.76328840819672
H            0.55978631900692        1.77461587420542       -1.17392338838321
H            2.35804045554433       -0.38698191674027        0.71812447779658
H            2.37025107631567        1.28393373454375        0.00195210431094
H            3.00024608018894        0.35856810184943       -2.15816541640540
H            2.87585268010347       -1.29397842121392       -1.56164986887710
H            4.85592532401426        1.79119658553998       -1.41401856603948
H            7.18839895191162        1.81169750937374       -0.73659019547957
H            8.99340959980482        1.69077524202007        0.77733256484751
H            9.37779842220355        1.02756035387506       -0.83402087015402
H           10.28337285331073        0.48005749162033        0.60449256015592
H            7.00116052429268       -4.19925455015502        1.67191879917879
H            5.45258081197599       -3.35423592167567        1.88319859211052
H            5.91540758769869       -3.97885053594102        0.27634380897110
H            4.41828023506918       -2.16317779935232        0.11156938904388
H           -0.37742670216177       -1.80374454786922       -1.82324844156112
H           -1.22324190863086       -1.34271528566243       -0.38280404922539
H            0.25594467760723       -2.31593229201957       -0.23150558281235
H           -4.68034490695950        2.92108932854209       -0.12383741975409
H           -3.69038026945079        2.89672825356645        2.74848172559440
H           -4.85222372282317        1.75478178626934        2.06357800383725
H           -5.27644488539741        3.46656392803904        2.19953976872408
H           -2.55107503294111        4.61870087777811        1.23998077566355
H           -3.04814773786042        4.74774158777304       -0.45327417677804
H           -4.17701578263069        5.15214804952704        0.83408134885643
H           -0.55148611456094        2.69523423624185        2.64379267692874
