72
 energy: 22.766339697725 xtb: 6.6.1 (8d0f1dd)
N           -1.37619429570867        2.69558890633088        2.07448215946416
C           -1.57416934048153        1.87661065938435        1.14658734321237
C           -2.81703806006016        1.89288644865925        0.28280165170781
C           -3.49763249133963        0.53999625695866        0.37643805809254
C           -4.47455231937514        0.16894046709251       -0.54963440101222
C           -5.10662584259037       -1.05741163507717       -0.49096563273035
O           -6.06579215547243       -1.49764857951398       -1.36334127794406
C           -6.49088257266053       -0.63192466994344       -2.38588818250375
C           -4.76280861186431       -1.96715936402133        0.53186511580664
O           -5.42959810561800       -3.15860447850490        0.50359672023077
C           -5.14387595912935       -4.09949437665255        1.50646707295686
C           -3.81311324868124       -1.58993087534213        1.46370572474747
C           -3.18935971444614       -0.34992226935423        1.38746569222409
C           -2.30151316813819        2.14922435073634       -1.16267933844509
C           -1.65112825003239        0.95120327649886       -1.87464212739892
C           -0.31300238204677        0.48945037969710       -1.30329606770147
N            0.08620377663042       -0.67445224263321       -1.00804425312198
C            3.19025743214612        0.71520747143579        0.04762139953292
C            3.44672174107399        0.15485204276819       -1.29985175661959
C            4.64523660249581        0.26925905663137       -0.39226110070572
C            5.62898446743523        1.26529194729691       -0.70144871629547
C            6.94971735719031        1.07877769943302       -0.42200010339937
C            7.43502476729530       -0.11188701275833        0.12012472139510
O            8.74219416974800       -0.41349120360089        0.37589830073961
C            9.69981260581463        0.55935146338714        0.07899774879341
C            6.50626090716576       -1.14937246714618        0.41470552549779
O            7.07457789476156       -2.27252622809842        0.95051631042182
C            6.25164736401429       -3.36456674949094        1.27398261107622
C            5.18364703093093       -0.98371259797682        0.13891282182143
C           -0.76566454160125       -1.82473188987848       -1.06587802298455
C           -3.86413214671100        2.97425466190202        0.67531093958643
C           -4.39435686817926        2.76332064705154        2.09288882008654
C           -3.33007529396396        4.39952350087931        0.54141845324306
H           -4.73665211726269        0.86165094578591       -1.33325897615193
H           -6.92393320598053        0.28869985699998       -1.97801946762200
H           -7.25516573706272       -1.18640337091916       -2.92839806147640
H           -5.67510235977116       -0.37776714867823       -3.07276995774832
H           -5.37695666970418       -3.70588082160527        2.50154449514666
H           -5.78950096205949       -4.94969576154713        1.29228252508946
H           -4.09686848734154       -4.42317187699826        1.48319784659947
H           -3.53497762533710       -2.25939837748179        2.26243387692214
H           -2.46376445078138       -0.08951783070229        2.14145914002294
H           -3.14439175242048        2.50327415899288       -1.76360317927343
H           -1.57666241610401        2.96189438516931       -1.11624807814327
H           -2.34083059004882        0.11413446095704       -1.88667401241766
H           -1.48866496174565        1.25119267599919       -2.92142237286681
H           -0.88985901335751        1.07568071734203        0.84119687560996
H            0.42063458183077        1.29188947293410       -1.23976161847535
H            2.74939255983288        0.05218419414452        0.78980208233171
H            3.01973842756841        1.78603017935461        0.15824975224230
H            3.37531199802297        0.85678021709573       -2.10654010193870
H            3.12670737138696       -0.83393634846150       -1.57643743625217
H            5.26493507878854        2.17444475633713       -1.14239639172493
H            7.62286856770021        1.88157777041486       -0.65053432357597
H            9.57920521499898        1.46099033917909        0.68759969179176
H            9.67990608823694        0.83386017925952       -0.98188402735825
H           10.65066015620485        0.08673171251374        0.31765921811552
H            6.92014330349977       -4.11545731605450        1.69034001998435
H            5.49954197825661       -3.10120650035490        2.02553843895191
H            5.74996542408038       -3.77699915277372        0.39066399300622
H            4.47518499369021       -1.77732227528044        0.32631840937275
H           -0.78308496324767       -2.17999820260322       -2.10019559869702
H           -1.79746333257401       -1.61512275605090       -0.76231960785053
H           -0.34048194907867       -2.62995591210799       -0.43831772765019
H           -4.71457455789198        2.86286780964862       -0.01293107215690
H           -3.58584116779768        2.89686929626720        2.80464705830882
H           -4.80519586620257        1.76181648149979        2.20253692911924
H           -5.18098065547995        3.48618259889832        2.30874799985255
H           -2.45497021611961        4.52286662606135        1.16935461177069
H           -3.06928817796732        4.63876154700819       -0.48696103132315
H           -4.09057989879625        5.10499586509968        0.86900744496931
H           -0.49878311254525        2.60855380570467        2.57863402753813
