72
 energy: 28.682556573131 xtb: 6.6.1 (8d0f1dd)
N           -1.40800220199258        2.69292992118247        2.10633320273986
C           -1.58512191297016        1.88860571176708        1.15986060900418
C           -2.81725223608775        1.90538619652301        0.28388178339369
C           -3.48420009770303        0.54732023044214        0.37411286365312
C           -4.46535782301195        0.17783660839355       -0.54849001087394
C           -5.08317279870107       -1.05464365798182       -0.49624039835670
O           -6.04541593674558       -1.49358540047288       -1.36002836561165
C           -6.48400831433602       -0.62781635890132       -2.37512672187501
C           -4.72489040361148       -1.96512258795105        0.52245349754980
O           -5.38472609479160       -3.15809660549256        0.49544355507486
C           -5.09326070124579       -4.09897173501772        1.49712315584153
C           -3.77215741155750       -1.58743571542016        1.45106660215092
C           -3.15861051127160       -0.34260092523124        1.37777779121444
C           -2.31070870778250        2.16375876145597       -1.16453194594840
C           -1.63188057102094        0.98029321627819       -1.89127879653446
C           -0.27997977221470        0.54129620108141       -1.28867901291419
N            0.16842443404560       -0.62185970637286       -0.99512780181469
C            3.08627731878418        0.66101126226407        0.03343779262465
C            3.38943398885208        0.09690354502549       -1.29782663354399
C            4.62405804504352        0.20876907147476       -0.44693672898389
C            5.57971467540154        1.21620808514436       -0.74511086392839
C            6.89931556006031        1.05289475849614       -0.44686008985370
C            7.39626890668313       -0.12652535763015        0.10595143795131
O            8.70153746179361       -0.39204321617986        0.39483052097620
C            9.63917499044436        0.60145036294696        0.10696698426303
C            6.48716282020541       -1.17564681750811        0.40519042917914
O            7.07728607099825       -2.28280322153618        0.95252606707347
C            6.26289156877358       -3.38930338511791        1.26222171347339
C            5.16226820715444       -1.03202908127649        0.10672625189760
C           -0.67228289417673       -1.78547312657268       -1.03686841500895
C           -3.86925504869546        2.97795014591970        0.66739511212850
C           -4.40737209763406        2.75939161704029        2.07912707280665
C           -3.33994418957782        4.40751046338113        0.54372457519100
H           -4.72811583373206        0.86938852559939       -1.33295342210507
H           -6.91714642453919        0.28850142304494       -1.95884864892402
H           -7.25183361179340       -1.18010833136679       -2.91415033994002
H           -5.67560195469858       -0.36709506703351       -3.06789838755997
H           -5.32444872287883       -3.70556335191062        2.49265675875619
H           -5.73658182190128       -4.95232464838529        1.28777616930979
H           -4.04543944175957       -4.41969652028098        1.47061824500060
H           -3.48582127099322       -2.25710345385237        2.24580838955074
H           -2.43049853699402       -0.07702333735186        2.12733500723970
H           -3.16088752290135        2.51164633827718       -1.76891627459956
H           -1.59203294440644        2.98476671257409       -1.11675965206346
H           -2.29195435686665        0.12215917256296       -1.87521969303922
H           -1.51189152391433        1.26772330148570       -2.95710650750797
H           -0.86367758577636        1.12966452201037        0.84749114677437
H            0.44877014080848        1.35269779829661       -1.29837375590108
H            2.70365255100916       -0.02296196448117        0.80085441091221
H            2.91114110005892        1.73026349599684        0.15812568205175
H            3.31636064166762        0.78156785805252       -2.11937724925347
H            3.13269056367939       -0.90323725470319       -1.60521758839914
H            5.20276245499069        2.11478083124741       -1.19529473944208
H            7.55656844468210        1.86831589181938       -0.67138070100183
H            9.48284844596494        1.50324074090935        0.70608509796665
H            9.63155375075331        0.86693716690538       -0.95595376977612
H           10.59724085736132        0.15688839277849        0.36745109174999
H            6.93186691320687       -4.13279749397187        1.68930727704420
H            5.49311048745670       -3.14036061223762        2.00076492376481
H            5.77958593476929       -3.80994570170392        0.37258725385882
H            4.46251125502885       -1.83660188792218        0.28756502990407
H           -0.70274797530994       -2.12849778098027       -2.07621248304462
H           -1.70090979062223       -1.56729263338534       -0.72636194303714
H           -0.24161615319218       -2.58151773484414       -0.40630410441796
H           -4.71177159740049        2.86969774358886       -0.03180351121546
H           -3.60300881815512        2.89230962921574        2.79542044495410
H           -4.81466966900217        1.75604542254731        2.18010421607045
H           -5.19744267853002        3.47766895912980        2.29273512092148
H           -2.47323222040811        4.53431596396193        1.18286159094247
H           -3.06818456321691        4.65503191855707       -0.47910744154848
H           -4.10474671478434        5.11163169165060        0.86468142611974
H           -0.51714767759596        2.62136996432519        2.60410833003118
