72
 energy: 9.051127934640 xtb: 6.6.1 (8d0f1dd)
N           -1.48557517728648        2.76518763975864        2.22955944543619
C           -1.57277898421733        2.06522075773638        1.18262745442782
C           -2.76800309481412        2.01113669303644        0.26711866952816
C           -3.37074862361438        0.62123263683933        0.34327899769877
C           -4.35535248886963        0.22860780461604       -0.56498598088359
C           -4.92034504177546       -1.03104723098617       -0.51881464069402
O           -5.88659748390231       -1.49325788524281       -1.36518356882250
C           -6.42167789706118       -0.61379905624396       -2.31981287768743
C           -4.49674856349370       -1.94870888195323        0.46632158159952
O           -5.10841944078661       -3.16890802060366        0.43211934840125
C           -4.79081597302050       -4.10045063750179        1.43265390280793
C           -3.52709949919196       -1.55622243537198        1.36960114234993
C           -2.97026293440805       -0.28434930982266        1.30671177984581
C           -2.22695609861532        2.25276115415105       -1.17263431137710
C           -1.35983703265738        1.10788075293688       -1.74813024964517
C           -0.06805376896319        0.97784362502717       -1.02692390033956
N            0.64627258628447       -0.19448613316676       -0.63436266861208
C            2.10936920892164        0.11794443228066       -0.20011246620396
C            3.06927488230104       -0.35251113766003       -1.28236242165543
C            4.47219777792929       -0.26192968924571       -0.76522818789856
C            5.22296550234433        0.86971150813749       -0.96485415341022
C            6.54439025794283        0.90638588269141       -0.55401888134832
C            7.11817746134935       -0.18445430332625        0.07151336623037
O            8.40755418647084       -0.26541545899416        0.49402360078663
C            9.24123872039416        0.83587790850560        0.25990791045130
C            6.33963916783250       -1.33532369512924        0.31836444402346
O            6.99632722893800       -2.35449433248113        0.94390721104548
C            6.29887392353231       -3.54978971850642        1.18671983813766
C            5.02381528690553       -1.35679600108164       -0.09634242241523
C           -0.14393178018612       -1.43354795065666       -0.73021661077977
C           -3.87468830276666        3.04590386755803        0.60754180250230
C           -4.47453913069894        2.77131788585155        1.98487314928265
C           -3.38016935322705        4.49130338897883        0.54916335797039
H           -4.67908514519083        0.92277525803221       -1.32254389704377
H           -6.86825194996005        0.26988725556438       -1.85083190021107
H           -7.19733640525943       -1.18089907476950       -2.83146970150489
H           -5.66784229102212       -0.29709277554232       -3.04903989387161
H           -5.01370276911993       -3.71135394294237        2.43229076329403
H           -5.42218690490486       -4.96529570200571        1.23385187929178
H           -3.73870697910802       -4.40333933303493        1.38894332953257
H           -3.19322072747943       -2.23229887961932        2.14073762085356
H           -2.23137847875883       -0.00555796446372        2.04012604259480
H           -3.07436659038493        2.42672235359625       -1.84347077888712
H           -1.62824693298854        3.16862742037952       -1.17216622422069
H           -1.93898407803807        0.19036786545157       -1.71213590122064
H           -1.16155238230624        1.35219742566373       -2.80456310263008
H           -0.73534246627345        1.49927766054828        0.73343806053944
H            0.58049284551082        1.84003620244412       -1.11230285375471
H            2.29436984015395       -0.46619310736559        0.71975120885557
H            2.33667730942598        1.19426026095903        0.01323411361872
H            2.93377871501536        0.27348445156366       -2.16321550546999
H            2.82089632404302       -1.37759804632409       -1.55066509212239
H            4.78913155970227        1.72408528749047       -1.45936669961843
H            7.11361164980322        1.79577543599804       -0.75372556750824
H            8.89321935081536        1.72677544741153        0.78917981852026
H            9.32722733657899        1.06083869606779       -0.80888410604893
H           10.21298029917578        0.54333236871621        0.65129877058650
H            7.01676360277207       -4.21029366832693        1.66837134381063
H            5.44788199596613       -3.39743290339742        1.85911162714045
H            5.94587231058202       -4.01294202846443        0.25836724202833
H            4.41390070073107       -2.23250060338295        0.07660327608372
H           -0.32885143407493       -1.74985225839510       -1.76953011540784
H           -1.15831303453143       -1.31088559894981       -0.30263902572183
H            0.34821309032106       -2.23765371841531       -0.19242222913990
H           -4.67068150805792        2.93216866227013       -0.14029697548759
H           -3.71031742319853        2.89862762222031        2.74338182004208
H           -4.85987080540185        1.75602548048957        2.03983959996317
H           -5.29038982618092        3.46497177003109        2.17920056446296
H           -2.56479251280879        4.63828474854423        1.25036861813972
H           -3.04554907345879        4.76787080533834       -0.44797130020904
H           -4.18988191498544        5.16164887496633        0.82840349162003
H           -0.56985190866158        2.70670495040034        2.67625381158138
