  25
        -42.13603210
 C          3.7469115577        3.2532868254        0.1210542420
 N          2.2370228812       -0.3617614124       -0.0387167303
 C          2.3599007780       -1.6544192135       -0.0321508112
 N          1.1459997335       -2.2904859377       -0.0166643530
 C          0.2059159145       -1.3126543790       -0.0151865185
 C          0.9072766720       -0.1000890632       -0.0304434938
 C          0.2028007998        1.1621193375       -0.0258703137
 O          0.7084007720        2.2623060719       -0.0377634266
 N         -1.1815268428        0.9842309894       -0.0049889017
 C         -2.0172990122        2.1756822668        0.0040758922
 C         -1.8837225448       -0.2089285513        0.0109307332
 O         -3.0852711762       -0.2383977088        0.0331281684
 N         -1.1352479394       -1.3988026319       -0.0007408810
 C         -1.8329137005       -2.6670143980        0.0127092226
 H          4.1040933175        3.5291853164        1.0953558290
 H          4.4151025060        3.2931076664       -0.7194978856
 H          2.7218147641        2.9466595583       -0.0106042431
 H          3.2959791162       -2.1763542846       -0.0381001647
 H         -1.3707768169        3.0469628947       -0.0691712283
 H         -2.7139753623        2.1436423904       -0.8342257427
 H         -2.5996614086        2.2140863808        0.9257626262
 H         -1.5585407124       -3.2426031621        0.8981739995
 H         -1.6003715661       -3.2387446713       -0.8869917857
 H         -2.9019077796       -2.4579892321        0.0382162726
 H          0.9954295800       -3.2880048896       -0.0137647727
