72
 energy: -99.327774665049 gnorm: 0.001625152718 xtb: 6.6.1 (8d0f1dd)
N           -2.15676543565984        2.93054455684313        2.43923688931829
C           -1.97385493534225        2.14892751853306        1.48214646354411
C           -2.96767128365110        1.91645640073015        0.37559889035939
C           -3.49330271001096        0.49333532611353        0.45756163228460
C           -4.27104432679181       -0.01929258267686       -0.58242223829038
C           -4.77822449912700       -1.30775565298243       -0.54142463695094
O           -5.53908781177919       -1.87516380127373       -1.49932555360991
C           -5.96870706091729       -1.09523545695609       -2.59124936704970
C           -4.49355640241836       -2.13630243945036        0.57861938654987
O           -5.00502546272286       -3.38180195216032        0.52616782388131
C           -4.80291408847568       -4.25148359840869        1.61602133740567
C           -3.73444337570273       -1.61543583385548        1.61513406726788
C           -3.24466478456024       -0.31676867094758        1.55567987953620
C           -2.19123682577414        2.13138140803555       -0.95223488173115
C           -1.27882617880671        0.96742280338544       -1.38600431830601
C           -0.05910609386645        0.81845523950864       -0.55150867967847
N            0.39391232254446       -0.31517914736370       -0.02578527483989
C            1.52852317584584       -0.39633510064920        0.65727108949582
C            3.43400951581588       -0.20985098386969       -2.53772837935915
C            4.56711490136425       -0.01792014776180       -1.78511657109070
C            5.28463626155211        1.21070319570714       -1.83358869641502
C            6.42230268891271        1.40225994088119       -1.09364776294007
C            6.91446018814465        0.39357072543920       -0.25899162340157
O            8.00751481799365        0.47784771669926        0.50614825907492
C            8.77692594724946        1.66004455566953        0.50271252713050
C            6.21575250207370       -0.85595107092456       -0.19020697601856
O            6.77920404731139       -1.76210889534382        0.63575493534965
C            6.20786458854101       -3.04475073915417        0.73821383063403
C            5.07643957516277       -1.04093215950438       -0.93080021269038
C           -0.38423976930466       -1.53256191965818       -0.18183247791133
C           -4.18859028482906        2.88341461679173        0.43560421880052
C           -5.03441844036757        2.64207980494503        1.68377188334102
C           -3.79527355093170        4.35544493446554        0.35637040549271
H           -4.49085839213933        0.60457739524000       -1.43281186456295
H           -6.54591446383651       -0.22691148357901       -2.25976598541891
H           -6.60756128147736       -1.74833559974792       -3.18226080601447
H           -5.12602411932694       -0.76307897069045       -3.20630222712223
H           -5.23444162949702       -3.84793239295466        2.53667938740716
H           -5.31488480187810       -5.17457629726762        1.35201083615065
H           -3.73912071952745       -4.45868914352494        1.77105949703132
H           -3.52394102904404       -2.21114211269012        2.48836864032198
H           -2.68006301882489        0.06153091734102        2.39352908809211
H           -2.91324902646704        2.30106735091432       -1.75104883526654
H           -1.58833665494955        3.03562855298336       -0.85876981317942
H           -1.86130031007489        0.04930831153477       -1.41744710006724
H           -0.96178540946144        1.19406937500248       -2.41235793682499
H           -1.04367471856008        1.57549017649958        1.32871617589297
H            0.58195216361851        1.68066768399930       -0.44746744551344
H            1.82146413976408       -1.32273876434493        1.10482467966188
H            2.14394139330562        0.47389632394258        0.77277430531720
H            3.06192130182796        0.56018771626343       -3.18805201481992
H            2.90259988278368       -1.14415725787162       -2.51736516977665
H            4.92146889898820        1.99627191600084       -2.47752307525318
H            6.94559063058189        2.34252821501309       -1.16314387072515
H            8.18498909405098        2.52418654080229        0.81709893748196
H            9.20856007329341        1.85076780731903       -0.48388671688281
H            9.57689187782018        1.48949757545528        1.22042332092424
H            6.86242383956163       -3.60328145490562        1.40459304453024
H            5.20278076577680       -3.00072857286092        1.17031103500500
H            6.16682020785903       -3.54460519531258       -0.23394217848352
H            4.54275069075579       -1.97695659104356       -0.89413799004122
H           -0.47931766378194       -1.78392991481522       -1.23786637890385
H           -1.37961349567159       -1.40571838615563        0.24701153724835
H            0.11403832945926       -2.35318956645128        0.32750570063513
H           -4.80851444303002        2.65246625009169       -0.43856681268311
H           -4.45815521549532        2.87327889339235        2.57403319968325
H           -5.37066389967921        1.60938569851618        1.73870515788866
H           -5.90974535996965        3.28601229961772        1.66120354653100
H           -3.16576084642060        4.62297284232547        1.19944154857228
H           -3.27351268699597        4.58707203171637       -0.56829406070177
H           -4.69321324981421        4.96685100478310        0.39532958735826
H           -1.40973246791397        3.03533775726779        3.11851002999106
