25
 energy: -42.108171212045 gnorm: 0.002918752695 xtb: 6.6.1 (8d0f1dd)
C            3.10266980966965        1.01980323725552       -0.28911107664233
N            2.23114885463394        0.02172693744832       -0.21411682076099
C            2.48289020525629       -1.30794326572177       -0.20865855384513
N            1.31360235455471       -2.00069753829767       -0.12864654026452
C            0.29167474147485       -1.10407062488916       -0.07766392843528
C            0.84716286104351        0.16313632496601       -0.12395937319607
C            0.03437012989773        1.35789593522563       -0.09748804672792
O            0.44185733082971        2.49362165440615       -0.13386832839358
N           -1.32414050516678        1.03937054670012       -0.02008133780544
C           -2.27071342631773        2.14565214401796        0.00572556997248
C           -1.90306783168711       -0.21529592111836        0.02287713747156
O           -3.08998471282312       -0.37561586703400        0.08021560535311
N           -1.03051880889883       -1.32658612154856       -0.00324840820921
C           -1.59062718882468       -2.66222790380562        0.04299585150857
H            4.80935357089968        2.22149225699548        2.02168730583905
H            4.15137643574360        0.80142430015502       -0.37572055830780
H            2.72668789900944        2.02633062606386       -0.28936164975902
H            3.45641437664021       -1.75013943133000       -0.26506814447475
H           -1.70616003120303        3.07489637452645        0.01439940922393
H           -2.91415496220249        2.10320267226435       -0.87348929946158
H           -2.89932151304811        2.07303004422291        0.89289295289170
H           -1.25280121458588       -3.18878302631072        0.93603550219658
H           -1.31427970650294       -3.22261322940958       -0.85090831947364
H           -2.67482805746278       -2.56178682783014        0.07877407327070
H            1.24182090317019       -3.00758475535213       -0.11304140407039
