25
 energy: -42.172645240437 gnorm: 0.008430330178 xtb: 6.6.1 (8d0f1dd)
C            3.24595818657714        1.20450823612575        0.01912919528316
N            2.31940595211272        0.10572358705560        0.01102958890109
C            2.63048538427168       -1.19875680173879       -0.03244429236385
N            1.49025199880042       -1.93828616091204       -0.05138083854429
C            0.43001526640037       -1.06990618674919       -0.01567666417068
C            0.95153454809195        0.21731321853558        0.02951454457146
C            0.11799946398214        1.39765350538045        0.08116270809323
O            0.49077127069989        2.55638922711148        0.08225802626554
N           -1.23148823968652        1.04787981171387        0.13645810387080
C           -2.15764278819927        2.15950431301133        0.19233919969478
C           -1.70903489255844       -0.21979747203773        0.12343418112666
O           -2.77818106431185       -2.70112083910648       -0.08275582694685
N           -0.91978947121335       -1.32775109259543       -0.02486064686707
C           -1.43405228124678       -2.55576961083401       -0.22541592231105
H            3.92513475354140        1.12187515453001        0.86711511976328
H            3.83115617384233        1.21224213011618       -0.90130528170472
H            2.67996605069101        2.13243094657797        0.09238598287723
H            3.62175260613293       -1.59991133806740       -0.05531246264045
H           -2.04637377811763        2.76074651137159       -0.71026851376330
H           -3.17824895569624        1.80282429376267        0.27824982523768
H           -1.90720478166935        2.79467892000777        1.04184993867612
H           -3.12404902394598       -3.34134789054862       -0.72214511752261
H           -0.78362816821586       -3.41354488935038       -0.24044460581497
H           -2.76841822239545       -0.38396260261099        0.19207447462053
H            1.46411152621105       -2.94537642914950       -0.05381909843468
