72
 energy: -99.649123714163 xtb: 6.6.1 (8d0f1dd)
N           -1.66059226156113        3.03607978747367        2.23473680249837
C           -1.70673031253421        2.23637942160011        1.26550254214507
C           -2.88080490584625        2.11945906383340        0.33309168955544
C           -3.43314078310263        0.70505095978317        0.39017440097956
C           -4.36166578101621        0.27996830737726       -0.56248090356340
C           -4.89822094548072       -0.99306967739181       -0.52942429997102
O           -5.80999660667693       -1.48431494782392       -1.41673364829969
C           -6.33254126278338       -0.61999431843889       -2.39230645289858
C           -4.50530238805393       -1.89079561258036        0.48793060164615
O           -5.08093900278875       -3.12575009233407        0.43636917103378
C           -4.79211331956767       -4.04115234203891        1.46106429116845
C           -3.59978349381226       -1.46311032695047        1.44015838391172
C           -3.07462865766143       -0.17684725771532        1.39241983872627
C           -2.31696565180421        2.42156416329083       -1.08259703621643
C           -1.49447553219875        1.28716025314499       -1.73131169873366
C           -0.16863651676256        1.08784427331422       -1.07790477697188
N            0.45176289795154       -0.14815107521061       -0.91928613400108
C            1.79082339859119       -0.20374037961138       -0.36045615518340
C            2.91594262577052       -0.71453824064101       -1.32757126695326
C            4.36513872774760       -0.53032946645333       -0.79897813220225
C            5.18902932450287        0.59960353406872       -0.97025723287895
C            6.48971224676072        0.75018887072556       -0.42971345368290
C            7.18555902769692       -0.19777125694109        0.36002352326413
O            8.45975038213522       -0.30784229140617        0.96518825493666
C            9.55104347062036        0.51578287928531        0.55099217205218
C            6.46585435488591       -1.38694730526317        0.13099234432471
O            7.31165908515442       -2.44274661632811        0.02965380293627
C            7.25668953459886       -3.29569339056956        1.12850984263029
C            5.11783295602234       -1.55756034333866       -0.22569076871520
C           -0.36880323891256       -1.33516091927116       -0.92212190476179
C           -4.04758300481776        3.09560634365381        0.66371685955188
C           -4.64795707085664        2.80508927971103        2.03841578157516
C           -3.64683223990923        4.56730506558135        0.58440355055417
H           -4.66570380603164        0.96360189911809       -1.33835062004332
H           -6.82323383391837        0.24898659725308       -1.94103624108905
H           -7.07092737106245       -1.20710175823622       -2.93650510391653
H           -5.56108665321428       -0.27827874638358       -3.09111487170062
H           -5.07461453743968       -3.65053136028312        2.44455226431375
H           -5.38859133089600       -4.92480015342998        1.23957307670709
H           -3.73234036806864       -4.31737989397395        1.47312040275705
H           -3.29157719170952       -2.12087353255420        2.23739102743936
H           -2.38786584707913        0.13191737973604        2.16531891074420
H           -3.15342858153214        2.66639445605904       -1.74064931550440
H           -1.68623104792133        3.31004155451134       -1.01755130413885
H           -2.08251675130855        0.37009662181391       -1.72928293407060
H           -1.36568719267559        1.58146785655086       -2.78752444061281
H           -0.86789719213356        1.59277588221536        0.94436826146535
H            0.51126878038716        1.92444141076695       -1.10305867505484
H            1.78020493834788       -0.84580292111472        0.52798919483167
H            2.06608463940744        0.80607020378356       -0.05402414766918
H            2.75509394779807       -0.18672880637061       -2.27505699922374
H            2.69404077308940       -1.76953227777322       -1.53686605383287
H            4.82660282205561        1.38084867401974       -1.62838813126077
H            7.06017007674913        1.57237034368001       -0.81212234833899
H            9.30774278134112        1.56396770056818        0.71999634073792
H            9.78736382203478        0.29690866250775       -0.49107829547131
H           10.48840619830747        0.33431435016912        1.10624235833500
H            8.23904201460592       -3.25840205007134        1.61051267979348
H            6.48181044380667       -2.97539676916250        1.82748961595730
H            7.03537171052621       -4.26707284718956        0.71570973479525
H            4.73841853121433       -2.57097699600637       -0.20053140154980
H           -0.65378147340979       -1.60768238404967       -1.94273969497943
H           -1.30044752886653       -1.19430465836106       -0.35531331738998
H            0.17986501658102       -2.16662371915362       -0.48372685112575
H           -4.82842354179419        2.91605453830807       -0.08599986252278
H           -3.91153357458880        3.00425359420026        2.80984547907979
H           -4.96781805806531        1.76836422896956        2.11134350183188
H           -5.51266890155106        3.44398398425678        2.20545942784746
H           -2.83828901103915        4.76777561265583        1.28007313527045
H           -3.33295439432777        4.84531727879361       -0.41837516951242
H           -4.49914128543740        5.18745510908910        0.85424595289626
H           -0.78982765623476        3.03113967744215        2.76270030395877
