25
 energy: 0.000000000000 xtb: 6.6.1 (8d0f1dd)
C            3.23720163006194        1.16630919979326        0.08434469647475
N            2.29877817382611        0.07527477071623        0.03981603040599
C            2.58028210190900       -1.21425402444508        0.03006176031096
N            1.43813958087363       -1.93419271955128        0.00098261760884
C            0.39035688448383       -1.05887472636071       -0.00790371836672
C            0.93510056364412        0.21347819449412        0.01709077491437
C            0.09450143893243        1.40504303904423       -0.00410947031874
O            0.49712751527797        2.54126714362870       -0.00342325688240
N           -1.25076640035757        1.06271879480407       -0.03085478223738
C           -2.21907211982101        2.15522099834493       -0.05001256985998
C           -1.81739487048744       -0.20012725993278       -0.04692818574614
O           -2.99983886758376       -0.37846417018721       -0.07008878229737
N           -0.92618586207120       -1.30210215599479       -0.03682761578324
C           -1.46982264913417       -2.64643102187190       -0.06029820460571
H            3.71247264356769        1.21471455160235        1.06488849150277
H            4.00791497605742        1.03430808813993       -0.67357694370751
H            2.69910007168542        2.09770118228144       -0.09130154882931
H            3.56654120610678       -1.63682992603973        0.04233140067262
H           -1.67107961066214        3.09322851271934       -0.02552706933167
H           -2.82428953597071        2.09428624779827       -0.95318082946668
H           -2.87644029173232        2.07745725625962        0.81450067533302
H           -1.17061996399332       -3.19584890659852        0.83242232437030
H           -1.14560257411436       -3.17511610292205       -0.95688275822323
H           -2.55549792440841       -2.55659984320617       -0.07459039797972
H            1.38130855184625       -2.94313852034425       -0.01389874181052
25
 energy: -2.316294141770 xtb: 6.6.1 (8d0f1dd)
C            3.22521780421882        1.17907872879939        0.07251371643977
N            2.29736140619972        0.09100678365082        0.03200966422283
C            2.59644528075954       -1.23397679337371        0.03183894544044
N            1.42957910844400       -1.94917076020522        0.00714440613584
C            0.39263323376143       -1.07072321037053       -0.00696932321968
C            0.92045283374922        0.20997274468698        0.01159180042213
C            0.09392489882923        1.38255081301822       -0.00653407814516
O            0.48913566890554        2.54787834022550       -0.01031963943090
N           -1.26608827518245        1.04752420702727       -0.03275429366548
C           -2.17992745241210        2.19495000499208       -0.03033515831198
C           -1.82887488615121       -0.21396331330903       -0.05774731264462
O           -3.02420209411857       -0.40581370462383       -0.07967786602571
N           -0.93706650184425       -1.31868936437066       -0.03708057574709
C           -1.46025430947321       -2.66990873923919       -0.05145326952619
H            3.70008402381217        1.23633227082643        1.05516924389372
H            3.99518221455815        1.04180319288620       -0.68773904190447
H            2.67304537351225        2.09876350073694       -0.11263012958824
H            3.57745136149267       -1.65157429851880        0.04596860789449
H           -1.65841802850167        3.18683071857637        0.06039399447876
H           -2.72766787049529        2.22403315542062       -0.94016770852277
H           -2.94557283076622        2.03437655574861        0.73232162505137
H           -1.15515592195490       -3.21343784908620        0.84560453899815
H           -1.12029959921972       -3.20704149111142       -0.93987889468309
H           -2.54652479373167       -2.59827508880495       -0.07226544099876
H            1.37175402354475       -2.95349780140992       -0.00196991441606
25
 energy: 5.892087308245 xtb: 6.6.1 (8d0f1dd)
C            3.20348189612751        1.19059892553551        0.05157240897877
N            2.28907692926342        0.10263499639190        0.01793135313300
C            2.60858679328770       -1.25485436784581        0.03510666529051
N            1.41766607548468       -1.96364378831154        0.01658683814138
C            0.39284552342292       -1.08820289756546       -0.00395627015192
C            0.89935662940837        0.20113392077103        0.00232158871841
C            0.09205628735968        1.34755650732991       -0.01425836973279
O            0.46982268134433        2.53559110253937       -0.02797629580361
N           -1.29039160384246        1.03317674449280       -0.03015191250621
C           -2.13392676760096        2.24824916350036        0.00227895736439
C           -1.84239784792930       -0.22910308276042       -0.06218034676578
O           -3.04356805545087       -0.44515987686623       -0.09121896880634
N           -0.95113421012149       -1.33776782044437       -0.03454796445301
C           -1.44381541024586       -2.70146556874485       -0.03736951591212
H            3.67820250304601        1.26846855846942        1.03537778377514
H            3.97560770884482        1.05272070798007       -0.70850779398855
H            2.63528422796901        2.09781820728010       -0.14677106815423
H            3.58536846567068       -1.66195454649189        0.05133602856391
H           -1.63407765771714        3.29771791679138        0.22202169676738
H           -2.56273824631937        2.44843946162693       -0.95521546626613
H           -3.05614728429235        1.96258207619700        0.60279561105788
H           -1.13140679923369       -3.23535877494386        0.86669948058613
H           -1.08072576143487       -3.25142441070067       -0.91297549010277
H           -2.53141749565142       -2.66324951740955       -0.06845150192218
H            1.36660608654685       -2.96547503464920        0.01658644833599
25
 energy: 18.302903403230 xtb: 6.6.1 (8d0f1dd)
C            3.17874685005429        1.19784386968075        0.03189045067366
N            2.27742909230858        0.10293055848034        0.00563587585275
C            2.61061379791517       -1.26990759554534        0.03796309797071
N            1.41043108469866       -1.97609668579446        0.02447724690720
C            0.38968403168040       -1.10741851084710       -0.00101967810046
C            0.88171256679575        0.18799419382136       -0.00648335482439
C            0.08336856342554        1.32216775211871       -0.02603390749630
O            0.44708529670013        2.51920272396606       -0.04965075553104
N           -1.31719476412189        1.02685751764532       -0.02120624445440
C           -2.10833928888526        2.28884528762423        0.03608225867867
C           -1.85640119806557       -0.24256639281861       -0.05757129170587
O           -3.05582660592458       -0.48461612673867       -0.09785297577558
N           -0.96166866519930       -1.35447057638579       -0.03126301743428
C           -1.42637866312170       -2.73084440368861       -0.02620757887435
H            3.65137551703771        1.29811250211937        1.01613101437573
H            3.95492286785066        1.06380148825009       -0.72543735435803
H            2.59798780122850        2.09577548039529       -0.17863609811798
H            3.58893488906738       -1.66629196515420        0.05583459892518
H           -1.62033362148029        3.37493653249717        0.37274142173488
H           -2.38500552229938        2.66619553292115       -0.95832577800590
H           -3.13680812659363        1.92565617321550        0.46668234210109
H           -1.10869515277578       -3.25389973211013        0.88481042206792
H           -1.03979949905018       -3.28835990462769       -0.88996025480891
H           -2.51473259471685       -2.72817880013397       -0.06892910212090
H            1.37110601140786       -2.97864031671890        0.03336255846789
25
 energy: 26.955548478676 xtb: 6.6.1 (8d0f1dd)
C            3.15565827942606        1.19991900303680        0.02002175448029
N            2.26551674387460        0.09387917702746       -0.00136006833308
C            2.60407190526561       -1.27777688757880        0.04009810608148
N            1.40741045976429       -1.98469561377313        0.02889665825863
C            0.38377196076791       -1.12379301556334        0.00057760255371
C            0.87023546066120        0.17391125756919       -0.01291189570703
C            0.07225289747933        1.30924282422652       -0.03944702071219
O            0.42685467049831        2.50221560595565       -0.07182281371448
N           -1.33922805597155        1.03066016626005       -0.00773038165334
C           -2.10007342149106        2.31678840905737        0.05880411638621
C           -1.86829053483745       -0.25013627654541       -0.04560317077824
O           -3.05985954913341       -0.51464973291509       -0.10023484424712
N           -0.96827354784286       -1.36543104083339       -0.02927253061276
C           -1.41181553785708       -2.75278404368690       -0.02313189203388
H            3.62352660411470        1.31888962228476        1.00454192790539
H            3.93696598805515        1.07268231903368       -0.73270423228046
H            2.56628335961989        2.09162187897293       -0.19960169378344
H            3.58746401181474       -1.66547948198893        0.05927606772148
H           -1.63014101170876        3.43078739304628        0.45825432798930
H           -2.24019164743702        2.79252037708377       -0.90611594781447
H           -3.15475480982291        1.94118508488442        0.34512646753256
H           -1.09270717208215       -3.26762981098903        0.89298667268616
H           -1.00411931007184       -3.31105723070103       -0.87785178709948
H           -2.49942864143840       -2.78202700976822       -0.07788456839516
H            1.38108556628894       -2.98981437192380        0.04412304171720
25
 energy: 29.757937015277 xtb: 6.6.1 (8d0f1dd)
C            3.14362925657631        1.19761338221200        0.01058657238869
N            2.25857605665449        0.08214004702936       -0.00605384155544
C            2.59289296290130       -1.27317799040667        0.03636116332449
N            1.41077907542246       -1.98609139274229        0.02972808694882
C            0.37725957973594       -1.13138715778038        0.00210342532938
C            0.86791151315239        0.16535068434218       -0.01313658942682
C            0.06024191295679        1.31071947780548       -0.03834128173237
O            0.41075650289604        2.49391757433275       -0.08546018105880
N           -1.34990296143041        1.03558794201311        0.01393366847922
C           -2.11906953296037        2.31329197166443        0.06823162062609
C           -1.87677084125196       -0.25410635356388       -0.03426618908747
O           -3.05908645823315       -0.52938802926385       -0.09461435155618
N           -0.96873077582902       -1.36940859846007       -0.02552457960432
C           -1.40745378793464       -2.75998280451947       -0.01963931009302
H            3.60755358622672        1.32307396513569        0.99419110058802
H            3.92668975110589        1.07326085431906       -0.73949550218770
H            2.55271061163937        2.08708645316635       -0.21234589731141
H            3.58202445112491       -1.65692666640426        0.05331250671206
H           -1.66552618371814        3.44328441851534        0.53464720841202
H           -2.09194629942188        2.84293125306640       -0.86221853692233
H           -3.16275114870780        1.95693364039879        0.22038001479427
H           -1.09005852073481       -3.26936362706394        0.89919168272097
H           -0.99064700034502       -3.31150025195831       -0.87152781340678
H           -2.49136326603679       -2.80150525289178       -0.08046326118682
H            1.39449618414763       -2.99332493677426        0.04745418095268
25
 energy: 32.508585206886 xtb: 6.6.1 (8d0f1dd)
C            3.14244342670199        1.19524137580605        0.00034849238028
N            2.25640154281597        0.07760132503045       -0.01262276304067
C            2.58485664304330       -1.26160674402162        0.02667535866100
N            1.41499807292176       -1.98244373790615        0.02602441951449
C            0.37275306862199       -1.13026199671972        0.00627958514006
C            0.86879433516274        0.16508015921326       -0.00812532598861
C            0.05277961761633        1.31393775457763       -0.01982624942455
O            0.40199002642733        2.49349886238415       -0.08761084018178
N           -1.34876805852347        1.03158409328271        0.05393946915852
C           -2.13731389196253        2.29487296266512        0.07060503533188
C           -1.88171111554331       -0.25780664884489       -0.01161218394134
O           -3.06001887245759       -0.53188237885636       -0.07765279511730
N           -0.96699252997704       -1.37007333804454       -0.01552426675335
C           -1.41112815908945       -2.75840965632364       -0.01447502833678
H            3.60662652200691        1.31720214553454        0.98265880683095
H            3.92343543408489        1.06805261146197       -0.75057202734979
H            2.55359742001600        2.08495982274718       -0.22151392419764
H            3.57601696472238       -1.64596168620217        0.03768363229435
H           -1.71475553639672        3.43729349716670        0.60809128687046
H           -1.92619876741906        2.86146547941780       -0.84286218497385
H           -3.21560283927490        1.94309968914010        0.07575549437838
H           -1.09397096068207       -3.26761350934941        0.90321622695907
H           -0.99524064370481       -3.30248844475243       -0.86889977228324
H           -2.49315194060285       -2.79653941457529       -0.07430928858531
H            1.40237490942845       -2.98977362065967        0.04136273880204
25
 energy: 33.122891607119 xtb: 6.6.1 (8d0f1dd)
C            3.14396430846789        1.19388641016051        0.00097784231336
N            2.25452898274666        0.07603141788705       -0.01392347090242
C            2.57716392142239       -1.24741797808025        0.02284910640507
N            1.41769194249472       -1.97657321150790        0.02297395209917
C            0.36810944331704       -1.12409621204104        0.00801980903799
C            0.86982748158002        0.16884941868767       -0.00543243268092
C            0.04650503918894        1.31801823924551       -0.01114803272373
O            0.39926801289686        2.49397404513190       -0.08848634857202
N           -1.34218671630473        1.02530314573528        0.07901584236965
C           -2.14929903776184        2.27896052368989        0.05487553910928
C           -1.88475238170794       -0.25962026092706        0.00265239826095
O           -3.06180443357219       -0.52383021410158       -0.06763701455068
N           -0.96535013685512       -1.36884996398277       -0.01084783290876
C           -1.41607959374918       -2.75514102454884       -0.01701663000133
H            3.60763836528090        1.30995992653690        0.98377676350774
H            3.92468952668703        1.06400981158262       -0.74930231307901
H            2.55808589306399        2.08530899902139       -0.21917698118758
H            3.56841712893234       -1.63695577548530        0.03135754033738
H           -1.76321460390010        3.42133491573601        0.59986060090752
H           -1.86769312702068        2.81866669786171       -0.78234034296664
H           -3.17501393737558        1.95868154013077        0.00520151961262
H           -1.09962969160045       -3.26734699221816        0.89813627332985
H           -1.00231802337449       -3.29472836245957       -0.87468245440538
H           -2.49900657362134       -2.78579955046356       -0.07636817250157
H            1.40267287870109       -2.98359694341940        0.03369873533670
25
 energy: 32.585200231404 xtb: 6.6.1 (8d0f1dd)
C            3.14475942113470        1.19664490184137       -0.00169342558963
N            2.25429232584029        0.08157539713440       -0.01695643303517
C            2.58126259080882       -1.24914283209519        0.02034608276219
N            1.41677487256492       -1.97772585187442        0.02225951840436
C            0.36980054039764       -1.12413063725856        0.00944532720459
C            0.86684350595337        0.17066774515961       -0.00454319894506
C            0.04300636778725        1.31438871014666       -0.00618444264976
O            0.39457061301277        2.49553674973673       -0.08494509605093
N           -1.34678261252985        1.01890759447987        0.09097921691293
C           -2.14804472240735        2.27928367588283        0.05638445260089
C           -1.88598128119896       -0.26370111974938        0.00631166055855
O           -3.06584042788986       -0.52876303725063       -0.06245393833740
N           -0.96627409297543       -1.37158721704216       -0.00776537719809
C           -1.41606203551327       -2.75743480785396       -0.01407022858658
H            3.61117691313872        1.31110317115775        0.98087842607884
H            3.92446900733528        1.06535567728361       -0.75339693842464
H            2.55909620017197        2.08860818036246       -0.22052740970844
H            3.57101991644231       -1.63933012432535        0.02664797414685
H           -1.77755381628877        3.42351856626849        0.61581903482391
H           -1.82129526465521        2.84584547966052       -0.79487742610503
H           -3.19203411553680        1.94749167057766       -0.02147464241790
H           -1.09868249861359       -3.27208679868437        0.89994220819514
H           -1.00595298594165       -3.29820242470551       -0.87361954829043
H           -2.50000472564175       -2.78372622464649       -0.07114383548294
H            1.39965097254074       -2.98406784203422        0.03167193528102
25
 energy: 32.131087024935 xtb: 6.6.1 (8d0f1dd)
C            3.14675854020007        1.19766832537962       -0.00165128814066
N            2.25529785063626        0.08497969307534       -0.01776157721977
C            2.58532212275548       -1.25272929821942        0.02007957635202
N            1.41549482722119       -1.97897513023675        0.02226271840055
C            0.37225992354394       -1.12316305590371        0.00905911345492
C            0.86647615283234        0.17215116882669       -0.00462093805962
C            0.04423936451302        1.31366360630612       -0.00467411912397
O            0.39840491475882        2.49679427480671       -0.07770749039046
N           -1.34684822913802        1.01879999947588        0.09289385862798
C           -2.14364541853347        2.28496389896922        0.05313153648831
C           -1.88325906687183       -0.26240142215802        0.00273069413864
O           -3.06572380840445       -0.52597546002603       -0.06310884959691
N           -0.96626785430830       -1.37116920857490       -0.00808394296675
C           -1.41595687964643       -2.75657934546377       -0.01307302784641
H            3.61506939857132        1.31118856446384        0.98085013564956
H            3.92566788762255        1.06635318487653       -0.75458772133874
H            2.56111594283112        2.09031092995579       -0.21916871730867
H            3.57336744891271       -1.64440619362711        0.02562061376438
H           -1.78762877872025        3.42542285852981        0.61284104372434
H           -1.82615586853772        2.83936116868192       -0.79616505334131
H           -3.19810431699089        1.94048836117871       -0.02147370627767
H           -1.09782475208294       -3.27312986485760        0.90007363359429
H           -1.00960413328669       -3.29984007951549       -0.87372202666936
H           -2.50095815691809       -2.77980017434640       -0.06776845039807
H            1.39471755697653       -2.98494819942521        0.03105788063060
25
 energy: 30.487652793589 xtb: 6.6.1 (8d0f1dd)
C            3.14845391683733        1.19934668518376       -0.00158189935680
N            2.25516322436589        0.08937973203818       -0.01866376067322
C            2.58858735039341       -1.25388498758866        0.01936366887832
N            1.41460623418376       -1.97912785962345        0.02176059959650
C            0.37394670035377       -1.12161048104488        0.00862381949097
C            0.86511330374315        0.17414816800877       -0.00461726577431
C            0.04135906263905        1.31288911242782       -0.00203719454523
O            0.39800384602199        2.49818795844594       -0.06837917104107
N           -1.34922437726284        1.01562686427950        0.09766895048763
C           -2.14547664061419        2.28608303901781        0.04702690896327
C           -1.88211577289761       -0.26385981904196        0.00035833044359
O           -3.06727328259535       -0.52498730817581       -0.06369618673591
N           -0.96636680393923       -1.37186315686356       -0.00788586388908
C           -1.41635363403580       -2.75632870890614       -0.01192731346716
H            3.61904023133111        1.31086074705144        0.98070468540164
H            3.92626200489634        1.06748589151062       -0.75599391705007
H            2.56361577067533        2.09308486348730       -0.21734791870158
H            3.57501470910809       -1.64721904985900        0.02380495780897
H           -1.80414510144867        3.41392259417904        0.60887808537495
H           -1.81448772300817        2.84066953621863       -0.79951463643251
H           -3.18763832963549        1.94205376437528       -0.02162725145843
H           -1.09665882560305       -3.27442918732754        0.90006704643658
H           -1.01456147766257       -3.30140055110411       -0.87437743595994
H           -2.50255389191960       -2.77533637446740       -0.06316886040457
H            1.38990417400959       -2.98466287004983        0.02959551875470
25
 energy: 29.330266043719 xtb: 6.6.1 (8d0f1dd)
C            3.14892178417776        1.19910087865315       -0.00249034199641
N            2.25457343838847        0.08986020366579       -0.01933297788432
C            2.58838623008579       -1.25303679938755        0.01807186942059
N            1.41454855344497       -1.97842449243483        0.02060065635668
C            0.37386919553301       -1.12068379881144        0.00888177522295
C            0.86521600868227        0.17448348043688       -0.00393820410574
C            0.03998588818833        1.31376815963700        0.00158546387802
O            0.39831086020854        2.49833665030288       -0.06342668078818
N           -1.34903052751335        1.01557149495844        0.10438481874844
C           -2.14722249981809        2.28663922112511        0.04368620697697
C           -1.88133374030415       -0.26375569298235        0.00328675948361
O           -3.06682473354751       -0.52283899891361       -0.06270803127560
N           -0.96625263851735       -1.37137166399825       -0.00653179217993
C           -1.41690347221983       -2.75527468066731       -0.01152673353466
H            3.62034118272164        1.30972250660852        0.97940294555385
H            3.92594840170152        1.06717847950200       -0.75767660115904
H            2.56474075249030        2.09348975236700       -0.21724795846796
H            3.57461902843278       -1.64670845543486        0.02139910012785
H           -1.81679662068403        3.40187115998264        0.61099410036905
H           -1.79545531092959        2.83673097006188       -0.79585968319543
H           -3.19013330424341        1.94571761095270       -0.03596419051241
H           -1.09607165703381       -3.27377718525793        0.89962579844576
H           -1.01656531544474       -3.29981163063747       -0.87501641895255
H           -2.50339863261295       -2.77378135704781       -0.06111722927624
H            1.38874179674972       -2.98397721050887        0.02795124489192
25
 energy: 27.437350431416 xtb: 6.6.1 (8d0f1dd)
C            3.14833727400641        1.19861787596505       -0.00322855574958
N            2.25339486204465        0.08949655949918       -0.01936574447610
C            2.58730565825068       -1.25237860277311        0.01792172428802
N            1.41422051622970       -1.97769137062203        0.02017564957626
C            0.37309388400078       -1.12038867875337        0.00892815958647
C            0.86524192343277        0.17400113584835       -0.00417574063853
C            0.03919727000655        1.31471509442859        0.00211603531980
O            0.39919589956789        2.49783357216200       -0.06263265689057
N           -1.34896347216740        1.01721552398369        0.10550924126140
C           -2.14685017307767        2.28994360580392        0.04139669701219
C           -1.88091144857641       -0.26303646689548        0.00403546684678
O           -3.06613022176068       -0.52076068926234       -0.06356786061657
N           -0.96678369989476       -1.37034599270553       -0.00585895713387
C           -1.41714301566914       -2.75419543316435       -0.01110263028562
H            3.61972733228837        1.30945182964330        0.97836082725849
H            3.92505461948780        1.06674914496947       -0.75860506981868
H            2.56461911780973        2.09339167991981       -0.21779190835771
H            3.57399187529108       -1.64506517499261        0.02067227799001
H           -1.82649149845713        3.38214669491214        0.61651614079089
H           -1.78183234835251        2.83783486342006       -0.79236519265569
H           -3.18963351270020        1.94928469715362       -0.04270189004288
H           -1.09557524143948       -3.27204005864612        0.89993639209261
H           -1.01624493795287       -3.29788493700967       -0.87475624213216
H           -2.50336853711324       -2.77441171503923       -0.06062234634753
H            1.38876254268134       -2.98345455567358        0.02824007926983
25
 energy: 25.844703304968 xtb: 6.6.1 (8d0f1dd)
C            3.14761321734894        1.19823254569888       -0.00352071109955
N            2.25301713506797        0.08851588183834       -0.01892975277960
C            2.58632671584885       -1.25241204983639        0.01856590804280
N            1.41395642596356       -1.97753108419076        0.02048651226740
C            0.37236920744851       -1.12076534445440        0.00907638587869
C            0.86546458015089        0.17330556753683       -0.00452688828362
C            0.03989624119301        1.31495490615050        0.00057668905159
O            0.40005242651984        2.49722632066384       -0.06596900756754
N           -1.34869374472577        1.01929098006488        0.10203518716077
C           -2.14487986575767        2.29319116878637        0.04076272055083
C           -1.88119833456323       -0.26201678106260        0.00387149567003
O           -3.06584640890529       -0.52006173225836       -0.06413289779142
N           -0.96742098852296       -1.36929657335787       -0.00571143819775
C           -1.41700008432787       -2.75366285865355       -0.01103837865523
H            3.61839683265293        1.31007612852660        0.97804619926971
H            3.92455364433910        1.06646340853848       -0.75854074308310
H            2.56363620057984        2.09274164195714       -0.21873749728954
H            3.57369450866565       -1.64385122036565        0.02118608610583
H           -1.83013996601176        3.36659003660856        0.62388677566997
H           -1.78021730494337        2.84317877621272       -0.79245618814004
H           -3.18877754569395        1.95206689049273       -0.04207368040305
H           -1.09572639918363       -3.27080191345689        0.90044249648459
H           -1.01415760710359       -3.29677550140000       -0.87397083697453
H           -2.50268295349393       -2.77615785256237       -0.06192281245910
H            1.38997873539021       -2.98347273930526        0.02962827271911
25
 energy: 25.190150707654 xtb: 6.6.1 (8d0f1dd)
C            3.14736740979292        1.19817590249800       -0.00337689035570
N            2.25354131818382        0.08774060567830       -0.01852991858593
C            2.58597791384433       -1.25281088072265        0.01930758719876
N            1.41386742220096       -1.97777231505333        0.02099129280342
C            0.37217291860110       -1.12117603762612        0.00907914304509
C            0.86576820916482        0.17307551492096       -0.00481382465977
C            0.04119958275986        1.31473010756616       -0.00133467694470
O            0.40026094846656        2.49708533784155       -0.06919264532835
N           -1.34830333655149        1.02035112792675        0.09797855280814
C           -2.14300165393825        2.29413804673839        0.04157939464829
C           -1.88173905429964       -0.26125069445278        0.00310880460409
O           -3.06595132564294       -0.52041332397287       -0.06371740818381
N           -0.96765328820612       -1.36873120642366       -0.00607622606752
C           -1.41681380297057       -2.75359076573014       -0.01119745160116
H            3.61757249350850        1.31088897507715        0.97835754613939
H            3.92473484560811        1.06650924343798       -0.75792085850834
H            2.56281294645112        2.09213211117405       -0.21935421118411
H            3.57366135281513       -1.64383992477058        0.02206603220694
H           -1.82916064039173        3.36081437012651        0.62794880393770
H           -1.78624271836802        2.84793208058526       -0.79426109381406
H           -3.18806832859594        1.95295109153138       -0.03847252082264
H           -1.09626606996704       -3.27036859415906        0.90085096295560
H           -1.01243557600295       -3.29668430144298       -0.87330643443071
H           -2.50218821776873       -2.77710217697829       -0.06342003661696
H            1.39110131924245       -2.98375569159825        0.03073997290356
25
 energy: 25.014247297600 xtb: 6.6.1 (8d0f1dd)
C            3.14750806171506        1.19830826084720       -0.00320670397929
N            2.25420971249779        0.08749373517354       -0.01844767618587
C            2.58603987094716       -1.25310393745818        0.01966427033429
N            1.41383134014169       -1.97794985894073        0.02124111557590
C            0.37229627127587       -1.12121236978543        0.00899601594287
C            0.86597569621953        0.17329276978179       -0.00488786556086
C            0.04209057995600        1.31462575969068       -0.00209608446332
O            0.40014379697340        2.49740053004195       -0.07008131719473
N           -1.34801579666358        1.02053486720362        0.09625794682861
C           -2.14207002868834        2.29375944356995        0.04242083383485
C           -1.88207234822390       -0.26075852833722        0.00270989675676
O           -3.06615088934959       -0.52068803291644       -0.06300411895128
N           -0.96758151087809       -1.36851548555242       -0.00644000043569
C           -1.41677586995636       -2.75354762572981       -0.01134294368376
H            3.61751858680258        1.31130678786871        0.97865550372890
H            3.92512873967594        1.06674414528225       -0.75753532323732
H            2.56256507657752        2.09189937230795       -0.21947951889544
H            3.57364573449962       -1.64447038598283        0.02244024443237
H           -1.82801445189628        3.35968277303259        0.62878194968510
H           -1.79108476548203        2.84947766282290       -0.79577099686422
H           -3.18754139846838        1.95275388665499       -0.03679452871906
H           -1.09667628477200       -3.27030687769383        0.90097295453186
H           -1.01201863223053       -3.29689077249908       -0.87307527081568
H           -2.50214019608817       -2.77691324347132       -0.06398641011530
H            1.39140337335141       -2.98389427373907        0.03104192359759
25
 energy: 24.905786524290 xtb: 6.6.1 (8d0f1dd)
C            3.14775803748312        1.19846442350798       -0.00316343331497
N            2.25476850163526        0.08747546885972       -0.01860644393262
C            2.58616627613250       -1.25320715647869        0.01981433142961
N            1.41378755233965       -1.97795868640402        0.02131133759649
C            0.37246590523664       -1.12099511278387        0.00890618240065
C            0.86611193576375        0.17368165590451       -0.00483384586755
C            0.04265754837320        1.31474711949248       -0.00194025523385
O            0.40001309555289        2.49790468099064       -0.06939146129613
N           -1.34779835840120        1.02045452638110        0.09627927002303
C           -2.14166781821275        2.29317597233931        0.04309774844715
C           -1.88222218778688       -0.26024828378349        0.00269406916363
O           -3.06627334710697       -0.52059363571241       -0.06239397002222
N           -0.96740075314900       -1.36840562259311       -0.00670231560862
C           -1.41685338521941       -2.75339717176470       -0.01139267233786
H            3.61781642098784        1.31144035176890        0.97874686723886
H            3.92545930869649        1.06703358339112       -0.75747646191370
H            2.56259485964959        2.09187826908293       -0.21941696137695
H            3.57352467994699       -1.64526096478828        0.02236442034555
H           -1.82807555302175        3.35906940377224        0.62866820189321
H           -1.79331931274918        2.84899141145274       -0.79668912177011
H           -3.18688709828161        1.95208981379314       -0.03774024481585
H           -1.09686285110357       -3.27027018466204        0.90094955582164
H           -1.01240185118204       -3.29700909948372       -0.87308786872777
H           -2.50234467430810       -2.77617921605517       -0.06383358168192
H            1.39119773666082       -2.98385294405557        0.03087054968754
