  25
        -42.12979970
 C          3.6961002881        0.8950757055       -0.0015508944
 N          3.5195893535       -0.4954140415        0.0193567617
 C          2.6378628605       -1.3528593235        0.0104052130
 N          1.1949170574       -1.4123195476       -0.0183809399
 C          0.0761623034       -0.6742589971       -0.0070682295
 C         -0.2483876229        0.7302676292       -0.0020538268
 C          0.4645927723        1.8511818648       -0.0027082503
 O          1.0067586571        2.8649982910       -0.0162609281
 N         -1.6624950891        0.8136739988        0.0043510111
 C         -2.4798427339        2.0085928024        0.0005460293
 C         -2.2089137571       -0.4267805316        0.0045994612
 O         -3.3574387158       -0.7453981206        0.0096877763
 N         -1.1042401596       -1.3245139393       -0.0009438777
 C         -1.3275065377       -2.7485501461        0.0020982252
 H          4.2641078328        1.1567218252        0.8939695285
 H          4.3404412107        1.1179686104       -0.8547115130
 H          2.7980245563        1.5034663592       -0.0566865782
 H          2.9835399768       -2.3817121059        0.0285408317
 H         -1.8575065601        2.8982891614        0.0339342945
 H         -3.0938237115        2.0252589758       -0.9009425041
 H         -3.1415390000        1.9920748304        0.8671085409
 H         -0.9111354760       -3.2154835956        0.8968595316
 H         -0.9273209262       -3.2176295870       -0.8988960196
 H         -2.4107702716       -2.8875822155        0.0116865459
 H          0.9326146867       -2.3955034285       -0.0282864930
