25
 energy: -42.040386849503 gnorm: 0.007968219583 xtb: 6.6.1 (8d0f1dd)
C            3.06520103583619        0.94982901532083        0.64058886647317
N            2.38253826659526        0.13043827463952       -0.36043690418365
C            2.94113178040430       -0.32517302304462       -1.38769963092824
N            1.13690410619265       -2.32280645321997        0.26123727091478
C            0.38499612047681       -1.30443231119543        0.06254363363757
C            0.98030370206720       -0.02288158740493       -0.15150513853664
C            0.19488173385127        1.19367959532605       -0.19533390952000
O            0.68032126518486        2.30443614941671       -0.29718848367045
N           -1.17420598218304        0.99991156446494       -0.13709833050305
C           -2.03363336412127        2.15997015598799       -0.23916406814724
C           -1.81231855329632       -0.22699239521115       -0.01656758315616
O           -3.01171619162761       -0.30435796588997        0.00275742370642
N           -0.99965793724545       -1.34426015105435        0.09714331273031
C           -1.66161656350644       -2.62683106372703        0.26482265866047
H            2.85747844323685        0.54834207723188        1.63477062028452
H            4.13908571621285        0.94867102535045        0.45978952848610
H            2.68543966375908        1.97241982329474        0.57121036688855
H            3.96095497584200       -0.18834931156113       -1.72113598351305
H           -1.43110610067310        3.05221224510735       -0.08214182140353
H           -2.49724485013418        2.20170376083789       -1.22831478688419
H           -2.83316902534075        2.08446902790023        0.49867429847630
H           -1.46806050975523       -3.03466905714237        1.26040867842746
H           -1.32256918169137       -3.33038385453620       -0.49824199704660
H           -2.73393424056714       -2.46788942701911        0.15306454213625
H            0.73042720458101       -3.22881757227232        0.43898905457131
