25
 energy: -42.131519442117 gnorm: 0.009432740332 xtb: 6.6.1 (8d0f1dd)
C            3.16554224675698        0.79257880253906        0.50141175135751
N            2.35312215832346        0.02966873915266       -0.48456249280175
C            2.62832045285274       -1.42059379693327       -0.40213093112783
N            1.46533630348319       -1.98166871004417       -0.19517348417499
C            0.39819288930964       -1.07363328624282       -0.13540161063799
C            0.92303579199024        0.16971829341703       -0.31159317519389
C            0.11785954822786        1.36965582146217       -0.30818685436820
O            0.53926752093156        2.49022582161092       -0.45183916159878
N           -1.22511405701410        1.05431066403824       -0.11001609689630
C           -2.17492495334550        2.16092898050704       -0.08665399268776
C           -1.78847787903586       -0.19297564227208        0.07546223153078
O           -2.95947520906380       -0.36099640674850        0.24425159748807
N           -0.90019322733126       -1.30812264383847        0.05731927354005
C           -1.44809803473800       -2.63716868887492        0.25215056817531
H            2.91547745993680        0.46215197243161        1.50664420755666
H            4.22188093983286        0.61168554850382        0.31377830542701
H            2.93727101616145        1.85311299860856        0.39905821683552
H            2.65938141922837        0.37838598822334       -1.41350417893268
H           -1.62522675686074        3.07984528819478       -0.27361144537938
H           -2.93422209671532        2.00917702632915       -0.85249779963205
H           -2.66642997552786        2.20527133684443        0.88431574343484
H           -1.04077665205074       -3.09284401245174        1.15497670697224
H           -1.24637201100164       -3.26754744371943       -0.61408079803468
H           -2.52643627345426       -2.52831888175646        0.36692657988934
H            1.37149089320259       -2.98460922737995       -0.08587154284141
