25
 energy: 0.000000000000 xtb: 6.6.1 (8d0f1dd)
C            3.23720132972391        1.16630909158653        0.08434468864950
N            2.29877796055224        0.07527476373246        0.03981602671198
C            2.58028186251803       -1.21425391179017        0.03006175752192
N            1.43813944744728       -1.93419254010258        0.00098261751768
C            0.39035684826767       -1.05887462812143       -0.00790371763344
C            0.93510047688824        0.21347817468824        0.01709077332874
C            0.09450143016486        1.40504290868848       -0.00410946993748
O            0.49712746915594        2.54126690785742       -0.00342325656480
N           -1.25076628431515        1.06271869620815       -0.03085477937476
C           -2.21907191394203        2.15522079838987       -0.05001256521996
C           -1.81739470187490       -0.20012724136556       -0.04692818139228
O           -2.99983858926755       -0.37846413507442       -0.07008877579474
N           -0.92618577614240       -1.30210203518959       -0.03682761236648
C           -1.46982251276835       -2.64643077634382       -0.06029819901142
H            3.71247229913541        1.21471443890471        1.06488839270555
H            4.00791460421487        1.03430799217987       -0.67357688121503
H            2.69909982127087        2.09770098766290       -0.09130154035862
H            3.56654087521359       -1.63682977417947        0.04233139674524
H           -1.67107945562430        3.09322822573871       -0.02552706696334
H           -2.82428927394145        2.09428605349656       -0.95318074103337
H           -2.87644002486466        2.07745706351925        0.81450059976605
H           -1.17061985538665       -3.19584861009707        0.83242224714061
H           -1.14560246782873       -3.17511580834413       -0.95688266944647
H           -2.55549768731684       -2.55659960601237       -0.07459039105944
H            1.38130842369251       -2.94313824728853       -0.01389874052104
25
 energy: -4.182232533678 xtb: 6.6.1 (8d0f1dd)
C            3.23784885916902        1.19391576502599        0.07030615636505
N            2.30214594360095        0.09994292217915        0.03458994468024
C            2.59370757974184       -1.23268860840928        0.04003508767343
N            1.42345760130437       -1.94500728099380        0.00225569925328
C            0.39155238740253       -1.06294391520981       -0.00921336886423
C            0.92486443045535        0.21687744172112        0.01387293626735
C            0.09875969397057        1.38874254955173        0.00443845695920
O            0.49729600510731        2.55339524593733        0.01560360883834
N           -1.26227485960825        1.04434580142837       -0.02435871836509
C           -2.21893733091642        2.14293295559026       -0.03835699746270
C           -1.82666448913321       -0.20638709381451       -0.04828298798843
O           -3.02331831294498       -0.38676971961078       -0.07417978493589
N           -0.93917094224578       -1.30826282769240       -0.04008982100358
C           -1.48058275835725       -2.64945330515552       -0.06686453690208
H            3.66058757043845        1.28661123484061        1.06195562352172
H            4.05919441147159        0.99111099703218       -0.61647149979457
H            2.80070832027190        2.17955018137183       -0.18734592208164
H            3.57018850433520       -1.66406355899829        0.05177040292248
H           -1.65484026113633        3.07272001997978       -0.00843840570443
H           -2.82261959017794        2.09498525856590       -0.94403125502967
H           -2.87713362564449        2.06951165401556        0.82647682147123
H           -1.17910756832209       -3.20468231200775        0.82341037882593
H           -1.15514883760762       -3.17901483897374       -0.96441232141351
H           -2.56588496720959       -2.55644680442082       -0.08029932125268
H            1.35758654100739       -2.94989297320911       -0.01533626378518
25
 energy: 1.215931449187 xtb: 6.6.1 (8d0f1dd)
C            3.24370413329973        1.22770381397486        0.04207968791160
N            2.30316615712720        0.13398239067180        0.02002432201762
C            2.60504338764042       -1.24740275773009        0.05526703704062
N            1.40352009630602       -1.94974914264645        0.00430731486068
C            0.39082308051173       -1.06817894784079       -0.01182613057614
C            0.90920471121744        0.22065104313707        0.00832564074816
C            0.10358900827983        1.36147726607276        0.02204332195568
O            0.48340586660749        2.55044685256169        0.05256829559816
N           -1.28062504647604        1.01924948589149       -0.01113201351724
C           -2.21858317190165        2.12730422809071       -0.01563230043225
C           -1.83479760677947       -0.21646255995305       -0.04881796055624
O           -3.04135441804472       -0.40142451152128       -0.08148361157887
N           -0.95611700182304       -1.31675824139469       -0.04542021782080
C           -1.49683077095913       -2.65446362067663       -0.07904635757381
H            3.54333346680629        1.43002655597056        1.06978547180129
H            4.16401577354353        0.89541215378563       -0.50235888446666
H            2.97540208586440        2.28736165332936       -0.38243396154181
H            3.56683404417118       -1.69489527167405        0.06296789035308
H           -1.63051671675294        3.04397414739868        0.02486104855546
H           -2.82004274258403        2.09953368256341       -0.92438274565915
H           -2.87862550236422        2.05726045008214        0.84834377301112
H           -1.19603596101144       -3.22121536991544        0.80648800555084
H           -1.17473068243332       -3.18563617077011       -0.97908619451682
H           -2.58209299570232       -2.55670087128602       -0.09048054247793
H            1.33052511042970       -2.95246746937760       -0.01792697649200
25
 energy: 12.919284090137 xtb: 6.6.1 (8d0f1dd)
C            3.25587866680727        1.25291742413312        0.00989785475803
N            2.30759448779271        0.15663196496665       -0.00428701980065
C            2.61131365621479       -1.25746684053228        0.06097052227182
N            1.39264776001358       -1.95337682234451        0.00717207385651
C            0.38981322763114       -1.07592302717779       -0.01451914354649
C            0.90210884968050        0.21865861885523        0.00192008254892
C            0.10556845313905        1.34387032914646        0.04413654327953
O            0.46731482094167        2.54248652237948        0.09103831215178
N           -1.29529401464232        1.00264795988140        0.00414805781683
C           -2.21801312794565        2.11727413193209        0.00694388461286
C           -1.84045963646358       -0.22674336095572       -0.04946650750979
O           -3.05081441744595       -0.41636222163051       -0.09067270856480
N           -0.96662997024498       -1.32574267040129       -0.04930315486028
C           -1.51321156232880       -2.66022709714908       -0.08994978731015
H            3.40430470686541        1.59273150632035        1.06418833166488
H            4.25991885780846        0.81581984352024       -0.36631628659290
H            3.14467365231059        2.35148913748861       -0.57199839687977
H            3.56128748113751       -1.72372354854927        0.06804703009964
H           -1.61004176122146        3.02151506951965        0.05866442791582
H           -2.81517899620712        2.10677628970010       -0.90522529564651
H           -2.88080931902756        2.04772368989980        0.86857218252420
H           -1.21784733028380       -3.23767149129483        0.79149044491574
H           -1.19857008301732       -3.19254302597944       -0.99294573024314
H           -2.59875784844871       -2.55516524811002       -0.09986652850841
H            1.31541775190732       -2.95656834487452       -0.01560527675904
25
 energy: 21.310941669030 xtb: 6.6.1 (8d0f1dd)
C            3.26857282711654        1.26975711318995       -0.01481614609375
N            2.31605732186802        0.16503842201557       -0.03094115045487
C            2.61309043349468       -1.26458325250409        0.05382880232647
N            1.39066651505347       -1.95745839773791        0.01161078594355
C            0.38851893637588       -1.08548824120906       -0.01438091567253
C            0.90455175553714        0.20991308414317       -0.00023202456637
C            0.10713421699143        1.33435472078781        0.06790365914847
O            0.45518705725536        2.52631967100369        0.12674108231787
N           -1.30305526185678        0.99415572392130        0.01775512121053
C           -2.21545414441809        2.11252946242978        0.02110561523108
C           -1.84297067730356       -0.23599962137334       -0.05134342890326
O           -3.05093298616758       -0.42773423249256       -0.10401444849069
N           -0.97054230674789       -1.33431943778726       -0.04972845912697
C           -1.52857995155878       -2.66606133056146       -0.09623201422952
H            3.29014030329457        1.72537611686763        1.01304973214914
H            4.29490878170876        0.79449103881168       -0.23845095817707
H            3.29546667973611        2.38300677015486       -0.68859324238117
H            3.55368898959802       -1.75164030564131        0.06971794882479
H           -1.59470375966653        3.00693673477073        0.08223634360187
H           -2.80595837024014        2.11357519193974       -0.89497798257509
H           -2.88339361026263        2.04317548162008        0.87820917263054
H           -1.24318702364084       -3.25117384307657        0.78307915668572
H           -1.22290988529703       -3.20017971394705       -1.00108280629580
H           -2.61452044352127       -2.55178201607305       -0.10662408055632
H            1.31043890762400       -2.96318035050847       -0.00678585035201
25
 energy: 23.696218818259 xtb: 6.6.1 (8d0f1dd)
C            3.28148358333731        1.27810476945155       -0.02906108685632
N            2.32741449975897        0.15837813577598       -0.05957865790754
C            2.60786516012917       -1.26270683594938        0.03107336516620
N            1.40013821599072       -1.95876065425172        0.01250168381688
C            0.38563236806733       -1.09355218504290       -0.01334973518414
C            0.91714223946469        0.19657031427543       -0.00250346554828
C            0.10929669110553        1.33580620922602        0.08360355893351
O            0.44918006720648        2.50332892469444        0.15861871649781
N           -1.30047891041613        0.99449517351569        0.02798793025165
C           -2.21107672030085        2.11262434084128        0.02925865219615
C           -1.84290496206934       -0.24350773073019       -0.05286406713158
O           -3.04206322183377       -0.43216223255820       -0.11595049984232
N           -0.96627466419261       -1.34089491980106       -0.04634590390780
C           -1.53886926823887       -2.67160396829700       -0.09684718817940
H            3.17248869874185        1.82032805490362        0.90957566715589
H            4.26845594730989        0.80815351206804       -0.08696236645996
H            3.43585349087826        2.37547205638851       -0.75358443547666
H            3.54215644656573       -1.77167156640290        0.07105323705742
H           -1.58959489052025        3.00263886036003        0.09617036497034
H           -2.79602921491170        2.11814726819183       -0.88896834770917
H           -2.88399732705951        2.04249894071133        0.88180024727835
H           -1.26416381865616       -3.25968818649397        0.78166814447549
H           -1.24253683842394       -3.20577495996454       -1.00313211276127
H           -2.62519301309276       -2.54838159822477       -0.10820115410169
H            1.31828974613292       -2.96881293394329        0.00107136546107
25
 energy: 28.444711666620 xtb: 6.6.1 (8d0f1dd)
C            3.28082344383342        1.28379564509209       -0.04739390357698
N            2.33556443560335        0.14465361273602       -0.10087801192546
C            2.60454207849821       -1.25803483618910       -0.00718271856866
N            1.41253268724388       -1.96196350066508       -0.00111201966875
C            0.38439084657199       -1.09868680148656       -0.01935715533120
C            0.92856564970474        0.18567229869737       -0.02201603258057
C            0.11760435698527        1.33635278179489        0.07988168484736
O            0.45993967476158        2.49351667687489        0.19209708845189
N           -1.28684947706283        0.99346103069503        0.03511302147669
C           -2.20271729466639        2.11220488987507        0.04238795448900
C           -1.84039170271691       -0.24727621268736       -0.04839569568882
O           -3.03641165322862       -0.42669503062388       -0.11471594149136
N           -0.96007919891628       -1.34535071890809       -0.04038180095474
C           -1.54323604355409       -2.67485522936524       -0.09127558680049
H            2.96738145380844        1.92816969276195        0.82485514629385
H            4.29634504080899        0.77642743163565        0.13034110844069
H            3.54224093676945        2.34382277227301       -0.86049396261857
H            3.53468161061293       -1.77728359127932        0.06324475695985
H           -1.59206046578424        3.00752927031178        0.11187671775439
H           -2.78963444613984        2.12049667710421       -0.87439057243001
H           -2.87674511578868        2.04072070776057        0.89426177333346
H           -1.27114291685958       -3.26379072373158        0.78568141615596
H           -1.25490132708569       -3.20667330676715       -1.00035464555024
H           -2.62882150176191       -2.54426444897338       -0.09958670458041
H            1.33059323333585       -2.97292029819191       -0.00517200424225
25
 energy: 24.002330504669 xtb: 6.6.1 (8d0f1dd)
C            3.27402921956724        1.27571543675659       -0.04122891354882
N            2.33903445739547        0.12240879409262       -0.11431075547603
C            2.59901277917111       -1.24603679050754       -0.03953394083762
N            1.42310931946654       -1.95973677121113       -0.01060852656121
C            0.38392559093226       -1.09609864814987       -0.02021803270082
C            0.93761526924250        0.18263442026971       -0.02831670706974
C            0.12363665534983        1.33808844782833        0.06602379902737
O            0.47589198825038        2.49359935951439        0.21308018634105
N           -1.26697131654309        0.99427515492161        0.02967125283315
C           -2.19363877916304        2.11218324362384        0.03976052827385
C           -1.83533435232009       -0.24600363756049       -0.04564272323297
O           -3.02934322972924       -0.41474767615810       -0.11372963768408
N           -0.95263854630044       -1.34461125694691       -0.03331489168782
C           -1.53986908668203       -2.67425338133056       -0.08289402661666
H            2.88206551921136        1.92712619487343        0.72761219281116
H            4.23719110450143        0.80095886387382        0.23900212317296
H            3.57390105743832        2.28838282489594       -0.85214390163838
H            3.53108780897983       -1.76078163219621        0.06538065046153
H           -1.59619838416487        3.01761640792814        0.10957282780790
H           -2.78446471732393        2.11715534893575       -0.87542565751470
H           -2.86712345153035        2.03798320281059        0.89267962654314
H           -1.26743152386788       -3.26096374330957        0.79450748901361
H           -1.25268929234775       -3.20462572921248       -0.99231025825028
H           -2.62429765491758       -2.54160442090115       -0.09039363486489
H            1.34171387035700       -2.96963522409698       -0.01018515640707
25
 energy: 22.553000206339 xtb: 6.6.1 (8d0f1dd)
C            3.27044704538435        1.27064527805776       -0.03923846396997
N            2.34791984075127        0.10742498094265       -0.13818231672670
C            2.60499666296319       -1.25523983915333       -0.07168664077043
N            1.42280229242584       -1.96660889976985       -0.02048047556966
C            0.38920565900998       -1.09782776312044       -0.02476119710641
C            0.94358644057109        0.18105251038230       -0.03789737469901
C            0.13253270557619        1.33073582647461        0.06948023197258
O            0.49353802235349        2.48994165086572        0.22569331953071
N           -1.25535972662933        0.99326988590626        0.02912185256276
C           -2.18310637759665        2.11197872240266        0.03969889487516
C           -1.82853952220662       -0.24191813072777       -0.04256614463031
O           -3.02528446849685       -0.40567187210182       -0.10961030767774
N           -0.95114413672644       -1.34461960524435       -0.02802668253697
C           -1.54085368101102       -2.67213956388810       -0.07632243122225
H            2.76965818154093        1.97535926940131        0.66803169474077
H            4.20331571878369        0.84240292746188        0.33404448243529
H            3.61004042465031        2.24442417755476       -0.86572854937870
H            3.53528472301436       -1.76685237383322        0.06787610948244
H           -1.58610242089001        3.01970330289977        0.11093595616970
H           -2.77514228180375        2.11512792344690       -0.87520682382120
H           -2.85487580755944        2.03403390473457        0.89377690855687
H           -1.26692980449799       -3.26060876089982        0.80041638872033
H           -1.25539575884008       -3.20429017984179       -0.98599350702206
H           -2.62460436149013       -2.53671126820740       -0.08186907073857
H            1.33622493569662       -2.97458331499941       -0.01447194098207
25
 energy: 19.703203392954 xtb: 6.6.1 (8d0f1dd)
C            3.25704093529066        1.27537853225935       -0.03541073532905
N            2.35130983503102        0.10447551688308       -0.16040516977693
C            2.61397774367441       -1.26395212300741       -0.10058632698247
N            1.41922645699422       -1.97046298304889       -0.02730891516561
C            0.39682631654723       -1.09653505562207       -0.02879328290468
C            0.94289323942446        0.18710610027003       -0.04686916409438
C            0.13401183806582        1.32544506885288        0.07718837454350
O            0.50269392419156        2.49159738186230        0.21958361432516
N           -1.25253896000618        0.99450801413190        0.02797048039170
C           -2.17865817299973        2.11313739279390        0.03690242067565
C           -1.82228873056473       -0.23634831837990       -0.03967717369663
O           -3.02299285989533       -0.40179978593549       -0.10221767221267
N           -0.95100215505066       -1.34302631892179       -0.02320317632175
C           -1.53833739060368       -2.66873305089076       -0.07020252191197
H            2.71748912020470        1.95925140707487        0.60220532868855
H            4.18319092822173        0.87700949868660        0.40978133955233
H            3.61865070624554        2.21559650369654       -0.84672506922020
H            3.54339836166593       -1.76525352013927        0.07695665720199
H           -1.57754399747743        3.01989455885386        0.10700659135884
H           -2.77033371592644        2.11209411601548       -0.87815861462488
H           -2.84778314297038        2.03210723154670        0.89245208846266
H           -1.26199639995485       -3.25890770080874        0.80630094631131
H           -1.25240190640333       -3.20368813429512       -0.97938746393491
H           -2.62180546113934       -2.53340750103246       -0.07454133428805
H            1.32918779240783       -2.97645804210174       -0.01582730885292
25
 energy: 17.345738881170 xtb: 6.6.1 (8d0f1dd)
C            3.25443043792175        1.27440643545416       -0.02891162615839
N            2.35552774264642        0.10177985876684       -0.15989378047444
C            2.61977073317445       -1.27459709629287       -0.10751187635391
N            1.41921894934043       -1.97444069284164       -0.03023465726237
C            0.40259582781621       -1.09721405997913       -0.02924712726948
C            0.94642072788104        0.18746003370117       -0.04969385100178
C            0.13615517143349        1.32551635870354        0.07641146546684
O            0.50624749906470        2.49438789252369        0.20346596512481
N           -1.25175752082821        0.99788117483815        0.02870788975284
C           -2.17726474215695        2.11644697077467        0.03881809882798
C           -1.81807603215290       -0.23368797282370       -0.03733694056305
O           -3.02001593133693       -0.40235116905547       -0.09487558872473
N           -0.94779466445757       -1.34109723858687       -0.02269911655659
C           -1.53442812691942       -2.66572548371440       -0.07103419088286
H            2.69574707483996        1.96687221164574        0.58616830255187
H            4.15940970030391        0.88686011228567        0.41995344872816
H            3.60759910687650        2.18873016285126       -0.83725683089333
H            3.54702968146754       -1.76861927190809        0.08994816689601
H           -1.57639042396233        3.02224220365174        0.10465455102490
H           -2.77060510361971        2.11396949545386       -0.87480954742736
H           -2.84571029333594        2.03779682124627        0.89497967555605
H           -1.25770998719613       -3.25611563300508        0.80531969599214
H           -1.24785310642133       -3.20024259857162       -0.98039006484342
H           -2.61810673522602       -2.53124067760997       -0.07526714327309
H            1.32777431982001       -2.97998904876403       -0.02223100604216
25
 energy: 16.532048516524 xtb: 6.6.1 (8d0f1dd)
C            3.25190818322512        1.27639994165891       -0.02576016353639
N            2.35773236647206        0.10159443586382       -0.16548145899856
C            2.62274256419033       -1.28218495686376       -0.11986835999628
N            1.41996911286240       -1.97672659851050       -0.03450096300301
C            0.40572105911918       -1.09838390692690       -0.03102868889343
C            0.94937241929720        0.18589082142426       -0.05671005357285
C            0.13721379748729        1.32666188060607        0.07137427646287
O            0.50610364986274        2.49632043185305        0.18757896741410
N           -1.25235698074964        1.00067085184354        0.03069765447362
C           -2.17712567691833        2.11917149920009        0.04345469417405
C           -1.81596727368927       -0.23320776314694       -0.03416841731367
O           -3.01788519576395       -0.40475509683938       -0.08623356337352
N           -0.94492006955158       -1.33991654866389       -0.02253100436985
C           -1.53131205473593       -2.66420631658039       -0.07126695222126
H            2.65857081572018        1.97768464441898        0.56297176367890
H            4.15518218364573        0.88670903359360        0.46249242180824
H            3.62050064383367        2.16879201805456       -0.84483937071227
H            3.54712128163566       -1.77011669776778        0.10324508552486
H           -1.57697507724634        3.02408635769839        0.10487346889254
H           -2.77320308215170        2.11636015133372       -0.86819298848742
H           -2.84437695983849        2.04341747502355        0.90074771912934
H           -1.25412579917389       -3.25408600547662        0.80483559410327
H           -1.24529400425983       -3.19774273866672       -0.98109797726842
H           -2.61532406955449       -2.53070851836992       -0.07458099336123
H            1.32894247125491       -2.98269560601587       -0.02897677835905
25
 energy: 16.360097650062 xtb: 6.6.1 (8d0f1dd)
C            3.25397439040914        1.27666551928727       -0.02484531146599
N            2.35549982392562        0.10455409456789       -0.16109102711227
C            2.62101277090748       -1.28037094028032       -0.11897620133000
N            1.41952017318287       -1.97497338687448       -0.03245625603411
C            0.40359274775559       -1.09785528765256       -0.03030496116317
C            0.94828198225508        0.18532069716906       -0.05535952476213
C            0.13611107021177        1.32753971029368        0.06775736839691
O            0.50324965357397        2.49708346884654        0.18428577695342
N           -1.25394849532912        1.00030010656109        0.03058347532339
C           -2.17848651688925        2.11866981470066        0.04363087018777
C           -1.81802230947414       -0.23432527329451       -0.03464924417727
O           -3.01948841999697       -0.40592154745249       -0.08673695981811
N           -0.94569444229416       -1.33957948852456       -0.02401166648039
C           -1.53140561524148       -2.66476818720481       -0.07224982347186
H            2.67812232377363        1.97045903102697        0.57360096214022
H            4.16008499148069        0.88344122743249        0.44534989037894
H            3.61786626936934        2.17164340065163       -0.84093256214588
H            3.54519356311226       -1.76670973193085        0.10655365510478
H           -1.57809387267997        3.02373724004588        0.10529450925357
H           -2.77523095083709        2.11669151101613       -0.86796545629497
H           -2.84535214544942        2.04296440788868        0.90135977696225
H           -1.25426936082842       -3.25413399085229        0.80404662594151
H           -1.24501745053468       -3.19792784235620       -0.98196959020600
H           -2.61556672923067       -2.53207769841513       -0.07574442963544
H            1.33028085380086       -2.98139806590593       -0.02813598435055
25
 energy: 15.903254296798 xtb: 6.6.1 (8d0f1dd)
C            3.25530541569017        1.27698430401808       -0.02423022286089
N            2.35415249002467        0.10622340961344       -0.15891101786501
C            2.62020214606009       -1.28017814791338       -0.12560531898814
N            1.41900553216876       -1.97397396357327       -0.03098503224586
C            0.40193381079987       -1.09745407238908       -0.02923634733499
C            0.94813891587022        0.18437265410192       -0.05370831496505
C            0.13614848381382        1.32772758878362        0.06530690863894
O            0.50243920568877        2.49707894900303        0.18071865457319
N           -1.25430110840420        0.99992375087440        0.03129744481382
C           -2.17874529057415        2.11811953744972        0.04423113260911
C           -1.81945335588510       -0.23495773493452       -0.03444857411702
O           -3.02071550602105       -0.40590851730223       -0.08676467171774
N           -0.94626440400666       -1.33897679215117       -0.02487421629567
C           -1.53156816692201       -2.66500500406630       -0.07301737283309
H            2.68443560552668        1.97154822409944        0.57626301660247
H            4.16217173863889        0.88288552204449        0.43928564386931
H            3.61941903646318        2.16676969461634       -0.83921305881826
H            3.54336038433747       -1.76320715767205        0.11412547446306
H           -1.57838810266039        3.02363867780629        0.10638006257118
H           -2.77608109181795        2.11687580176014       -0.86733584243003
H           -2.84527206086719        2.04199952886776        0.90233135934671
H           -1.25438698254440       -3.25424536362811        0.80328155745160
H           -1.24481964912775       -3.19767647121498       -0.98275077857536
H           -2.61582896290191       -2.53284683227153       -0.07666639691071
H            1.33132622162314       -2.98068879717822       -0.02844017678695
25
 energy: 15.044639368413 xtb: 6.6.1 (8d0f1dd)
C            3.25591719406985        1.27789626462995       -0.02393531446478
N            2.35218035869070        0.10829082886879       -0.15616717663560
C            2.61985827122177       -1.28028917933226       -0.14223671467466
N            1.41834673134595       -1.97284299157609       -0.02938077943353
C            0.40016036610456       -1.09681763546133       -0.02656497359290
C            0.94822174005061        0.18342847514120       -0.04952399434976
C            0.13615017375250        1.32801385851491        0.06458738633992
O            0.50164644609675        2.49712361270380        0.17799017513546
N           -1.25432440214084        0.99939140575811        0.03314911474458
C           -2.17888845797986        2.11725634783599        0.04504008444589
C           -1.82085166988043       -0.23559842266563       -0.03421786466000
O           -3.02190464390413       -0.40532868461020       -0.08772973401855
N           -0.94677604405101       -1.33814847117348       -0.02529580986769
C           -1.53181736014375       -2.66518290764014       -0.07380354060055
H            2.68985923408701        1.97586008037667        0.57693066797744
H            4.16406508026683        0.88129494693393        0.43437682868761
H            3.62364030978350        2.15527457578117       -0.84045275139216
H            3.53983515842355       -1.75635904149993        0.13031435717760
H           -1.57898550044527        3.02351680516154        0.10818310732899
H           -2.77591225457783        2.11667781087448       -0.86694227054366
H           -2.84575267581419        2.04028924913815        0.90291925143550
H           -1.25464553112788       -3.25451556027493        0.80236585045215
H           -1.24443241804235       -3.19710996306077       -0.98363001537740
H           -2.61613257885822       -2.53329182757819       -0.07787462450859
H            1.33275677804517       -2.97980078810188       -0.03106734741070
25
 energy: 14.457308160617 xtb: 6.6.1 (8d0f1dd)
C            3.25514781421725        1.27804753906961       -0.02487432501715
N            2.35130256250052        0.10848870193602       -0.15529318650175
C            2.62051572545438       -1.28038579244510       -0.15447715531787
N            1.41822972115104       -1.97269786728268       -0.02968897541559
C            0.40025360068840       -1.09646237151557       -0.02439527736042
C            0.94845197508961        0.18366191458328       -0.04623724458832
C            0.13576569101392        1.32821848346231        0.06696585456011
O            0.50149690279514        2.49705609965490        0.17998571692130
N           -1.25386831049950        0.99931388576564        0.03425985718309
C           -2.17889972193685        2.11698369137457        0.04485459548704
C           -1.82058201673455       -0.23556786572795       -0.03415715117850
O           -3.02159937791709       -0.40470570681928       -0.08927688497200
N           -0.94648431910644       -1.33797208816402       -0.02431398852536
C           -1.53178602721629       -2.66507363125183       -0.07344103140095
H            2.69040211965584        1.97828478736065        0.57648418283591
H            4.16468479960465        0.88071420967267        0.43308501873979
H            3.62514540816294        2.14755885829222       -0.84275615461742
H            3.53690650617901       -1.75181661377154        0.14090775259670
H           -1.57948198952369        3.02354722983905        0.10861709125317
H           -2.77472056470342        2.11604678916805       -0.86775255136513
H           -2.84663082293500        2.03958139693129        0.90196085587785
H           -1.25471569541057       -3.25467843927579        0.80254057619634
H           -1.24414196199968       -3.19673968902728       -0.98337075456601
H           -2.61601737449245       -2.53283414879496       -0.07784517225198
H            1.33283966093585       -2.97954058429040       -0.03474773637827
25
 energy: 14.091398172936 xtb: 6.6.1 (8d0f1dd)
C            3.25365669103776        1.27778753179174       -0.02654400454674
N            2.35093648264835        0.10778861107414       -0.15510425643533
C            2.62180803121572       -1.28037004183387       -0.16301924342257
N            1.41845465962964       -1.97304540981453       -0.03158470963863
C            0.40148851028554       -1.09627075261327       -0.02291863321374
C            0.94868983956729        0.18450415312792       -0.04390122401159
C            0.13499251181607        1.32837383603761        0.07052089280811
O            0.50148609239764        2.49686351043048        0.18473433715289
N           -1.25329613513476        0.99958105251080        0.03464062663116
C           -2.17894921991008        2.11716022050436        0.04416608851918
C           -1.81936312049959       -0.23524905448422       -0.03423588507326
O           -3.02042172798859       -0.40441702843608       -0.09093829400807
N           -0.94561397479454       -1.33818594335452       -0.02260619278008
C           -1.53143331052797       -2.66479660649770       -0.07245871816664
H            2.68956378786796        1.97874726590482        0.57660382314668
H            4.16449098082756        0.88026590707187        0.43259009823697
H            3.62465371542290        2.14333720056254       -0.84599581553150
H            3.53400697026101       -1.74884740930116        0.14918711487654
H           -1.57987500084200        3.02368130299459        0.10820020908332
H           -2.77343091203248        2.11530501677387       -0.86903207476632
H           -2.84756210567183        2.03964798009439        0.90042634646069
H           -1.25458863647571       -3.25479155562062        0.80330361913580
H           -1.24385801422858       -3.19647907670793       -0.98251209150922
H           -2.61553377289859       -2.53196901344827       -0.07710768376868
H            1.33191196300026       -2.97959290802313       -0.03938041698433
25
 energy: 14.027285850577 xtb: 6.6.1 (8d0f1dd)
C            3.25286076676637        1.27747432879777       -0.02774799518887
N            2.35100682270386        0.10715543577933       -0.15544974636070
C            2.62276050495308       -1.28036836786311       -0.16482479542026
N            1.41869419500814       -1.97341826730079       -0.03364372281335
C            0.40251078452978       -1.09628988999030       -0.02318293388309
C            0.94879656405224        0.18497167218180       -0.04402903909383
C            0.13446009461888        1.32837621200735        0.07190159858784
O            0.50155241748255        2.49662613444632        0.18751224385634
N           -1.25305812636452        0.99993631915662        0.03420104978996
C           -2.17899363722280        2.11752693342061        0.04373705347631
C           -1.81848193192752       -0.23502712694305       -0.03427599943468
O           -3.01958668099840       -0.40461786761768       -0.09123102126110
N           -0.94495037623723       -1.33840745071179       -0.02168659606251
C           -1.53102541726875       -2.66458411760870       -0.07177772999511
H            2.68918347668864        1.97752182890709        0.57737403898394
H            4.16415931771997        0.88043638550752        0.43219595158627
H            3.62272804889062        2.14372600299032       -0.84698836972154
H            3.53267575878502       -1.74864866504745        0.15315827801715
H           -1.57991660513213        3.02384595091982        0.10755680017264
H           -2.77327600891258        2.11508025681333       -0.86948383983285
H           -2.84765746125295        2.04016234177062        0.89988835046638
H           -1.25425717949955       -3.25476132419901        0.80387436028337
H           -1.24373436679909       -3.19638658470062       -0.98191270736258
H           -2.61508472370867       -2.53152889668057       -0.07635666378206
H            1.33084806809802       -2.97977245529157       -0.04177465281306
25
 energy: 14.094823744842 xtb: 6.6.1 (8d0f1dd)
C            3.25261564453960        1.27731464547367       -0.02883338608900
N            2.35104100326980        0.10693460378690       -0.15566696119220
C            2.62377649589283       -1.28041651838948       -0.16580013860560
N            1.41885630456465       -1.97370781896845       -0.03587332799198
C            0.40320821616571       -1.09637845308284       -0.02426486710754
C            0.94880448772096        0.18503829252278       -0.04513275981586
C            0.13401414999933        1.32825455328655        0.07203470990479
O            0.50158216848502        2.49620199151003        0.18906440560925
N           -1.25299328407575        1.00028066734600        0.03335933443338
C           -2.17902105973164        2.11787067479357        0.04356891643331
C           -1.81795595141718       -0.23498632875209       -0.03425539260251
O           -3.01908981771888       -0.40508669847339       -0.09078848143395
N           -0.94443025342962       -1.33851883065716       -0.02120922882467
C           -1.53057579320831       -2.66443013110170       -0.07140785542632
H            2.69000204063803        1.97577080563575        0.57884404126600
H            4.16361117413562        0.88036717099836        0.43132095280462
H            3.62079562503111        2.14622780556651       -0.84743217906006
H            3.53126419802917       -1.74909284922204        0.15812122874710
H           -1.57979847534033        3.02400093235272        0.10702863736540
H           -2.77384493987304        2.11517485382306       -0.86932052608961
H           -2.84719525644999        2.04062876588533        0.90009534050734
H           -1.25374186122093       -3.25475854218052        0.80411612607678
H           -1.24372264619310       -3.19626586281822       -0.98167204723028
H           -2.61466487465662       -2.53146055591862       -0.07564502012638
H            1.32967700981658       -2.97993438467283       -0.04321760935742
25
 energy: 14.158722537468 xtb: 6.6.1 (8d0f1dd)
C            3.25307691177226        1.27736738997011       -0.02894148119077
N            2.35097276755827        0.10716027548329       -0.15548726499388
C            2.62395867859604       -1.28057483419916       -0.16658337619637
N            1.41879154563263       -1.97372595414559       -0.03595097606383
C            0.40290621923011       -1.09645478253571       -0.02467170138344
C            0.94881481508071        0.18462684732833       -0.04560252487743
C            0.13413750221574        1.32812516624283        0.07126319811733
O            0.50169093552562        2.49595834783910        0.18805051440223
N           -1.25297671465502        1.00024511931386        0.03307213350822
C           -2.17892819735841        2.11778299922045        0.04371209800571
C           -1.81823507339930       -0.23512598439581       -0.03417044957555
O           -3.01936429032187       -0.40510327942341       -0.09019274273155
N           -0.94454646975461       -1.33839131962359       -0.02145083214810
C           -1.53059454025356       -2.66447817181607       -0.07160678163641
H            2.69098008856059        1.97563678002526        0.57929881630162
H            4.16360669041591        0.88024962926458        0.43112735152918
H            3.62048944335414        2.14764888827807       -0.84666305205214
H            3.53064499518469       -1.74907557403053        0.15940412899649
H           -1.57973389780513        3.02402366580605        0.10700764573701
H           -2.77427709478091        2.11527907275512       -0.86889358673283
H           -2.84671450334887        2.04049493421860        0.90059400357401
H           -1.25370191995991       -3.25473777268430        0.80394710812729
H           -1.24369000052127       -3.19623297841376       -0.98184718389427
H           -2.61473274766900       -2.53170107177946       -0.07578157772792
H            1.32963916167420       -2.97996860395444       -0.04259955489998
