25
 energy: -42.567452854691 xtb: 6.6.1 (8d0f1dd)
C            3.26846097742574        1.29076759174532       -0.03979490674157
N            2.34632499469537        0.13264315083028       -0.15233825677242
C            2.62688666170493       -1.25416806303409       -0.13324787744793
N            1.42851418806918       -1.95371803828269       -0.02569754603584
C            0.40463985641564       -1.08572491406631       -0.03109804155033
C            0.94291577993017        0.20012417280870       -0.05422865078136
C            0.12501008759265        1.33856390063243        0.06974395401341
O            0.48500825986854        2.50454536085077        0.21711993656695
N           -1.26513884120479        0.99831911626549        0.02952270216329
C           -2.19372323739675        2.11158655625352        0.04043084656426
C           -1.82219424463573       -0.23774372562593       -0.04303492253377
O           -3.02288308162966       -0.41023370654707       -0.10718566105982
N           -0.94385294472740       -1.33921033489875       -0.02902477978178
C           -1.53131048545795       -2.66680639760336       -0.08388286062077
H            2.87808224417297        1.91157637977984        0.76295599284162
H            4.22479687400223        0.83558420823651        0.23644572075953
H            3.45810787353799        2.16319124348726       -0.81474474599180
H            3.54832782978626       -1.74150915409079        0.10994494239758
H           -1.59099576227667        3.01235463092689        0.11158377165611
H           -2.78184218011664        2.11641706421783       -0.87570167095184
H           -2.86047112334362        2.03186309377111        0.89585222945258
H           -1.26078918634311       -3.26172892961865        0.78895011486702
H           -1.24715693121880       -3.19935656480567       -0.99588798170937
H           -2.61599181962753       -2.53399265419202       -0.08633477214071
H            1.34185167541330       -2.96027064434208       -0.01516050103809
