25
 energy: 46.530845907699 xtb: 6.6.1 (8d0f1dd)
C            3.32940445970501        1.42538623512969        0.08999068124470
N            2.48845134603773        0.25430531758690        0.07738948982123
C            2.86605205406554       -1.03321209893882        0.06448401689275
N            1.77487499370322       -1.85251253998605        0.01946699474663
C            0.63952167152722       -1.06995004622551       -0.00010599034738
C            1.12011003589943        0.25572525285918        0.03819379708025
C            0.22739005194050        1.37572669393888        0.01488248549966
O            0.57975445988766        2.55179751413176        0.02709649302240
N           -1.07817191723347        0.95338963748994       -0.03169502154496
C           -2.09598463616177        1.99793444781086       -0.05192574892242
C           -1.54152391006086       -0.38289253328940       -0.04470694128035
O           -2.75195142207983       -0.46036056303133       -0.06397831549388
N           -0.64222099257565       -1.41365783448557       -0.03774591500438
C           -2.55741884406398       -3.06300781547518       -0.09160624438957
H            3.86881258396327        1.48832036244316        1.03465604306210
H            4.04360482474271        1.39851172636883       -0.72872567475770
H            2.72522683418681        2.32736237460640       -0.03154621365833
H            3.87364339202786       -1.38735573764148        0.06488756299407
H           -1.53614768009085        2.92905610568030       -0.03517179856149
H           -2.70826823607387        1.92143033175640       -0.95103073402762
H           -2.74720827780838        1.90661206373742        0.81769693340235
H           -2.27466630245515       -3.50272907158480        0.82042204964345
H           -2.24872942200719       -3.47020545857146       -1.01036480822978
H           -3.22809869997163       -2.24774979900591       -0.08544338578047
H            1.83927883278204       -2.86596992792373        0.02116525726542
