25
 energy: 38.493183251193 xtb: 6.6.1 (8d0f1dd)
C            3.47988105001777        1.58567404736703        0.09236935488264
N            2.65040285707869        0.40970463153164        0.05309426759637
C            3.05986854229631       -0.85067225697727        0.05105290328829
N            1.99377859977286       -1.67891980966243        0.02076134581457
C            0.84427447902475       -0.91392925744621        0.00345463970426
C            1.28229015929046        0.41730493805521        0.02518587831210
C            0.31840961561468        1.48955566056976        0.00135415908913
O            0.58909061851858        2.68344342514695        0.00361784018284
N           -0.96264280925297        0.99313976804001       -0.02770894492746
C           -2.06303094495051        1.93933135194389       -0.05052661699042
C           -1.35054005922668       -0.38518403539073       -0.04099583059756
O           -2.53409930257122       -0.62832613175763       -0.06533129229813
N           -0.38711692252839       -1.33887141239117       -0.02753598641512
C           -3.32066934681502       -3.52593575396973       -0.11009249885215
H            3.98674110571793        1.66095193565981        1.05552299042467
H            4.22743300610675        1.55024693051685       -0.69999752282216
H            2.83660631923498        2.45602607400964       -0.04133313016283
H            4.08313633617696       -1.16700765118562        0.06891755439222
H           -1.64457505914310        2.94276856549820       -0.02971417112212
H           -2.65842058116095        1.79196950604368       -0.95200187470963
H           -2.70782364544623        1.77502372776838        0.81317759686908
H           -3.10256886974341       -4.02333654655116        0.80996831639890
H           -3.06878177561700       -3.99521395397335       -1.03631149483528
H           -3.65609713863506       -2.51282256092101       -0.10090667354967
H            2.01666807121237       -2.68589240318079        0.01101310252197
