  72
        -99.30686419
 N         -1.3784578224        2.5641055551        2.6005795817
 C         -1.3961950863        1.7469412126        1.6555857186
 C         -2.4398054668        1.7508598550        0.5620132733
 C         -3.1485139204        0.4091774793        0.5140882361
 C         -4.0772322843        0.1554766089       -0.4972941375
 C         -4.7456831948       -1.0564904121       -0.5809243035
 O         -5.6411874367       -1.3856645347       -1.5293839562
 C         -5.9871380631       -0.4412246096       -2.5161205377
 C         -4.4906748816       -2.0662510965        0.3903975556
 O         -5.1654360228       -3.2155229815        0.2207636041
 C         -4.9997453709       -4.2581390571        1.1542780287
 C         -3.5957598543       -1.7910232068        1.4144815810
 C         -2.9397536929       -0.5702177998        1.4772981353
 C         -1.6436754774        2.0125824133       -0.7237830993
 C         -1.6442975477        1.1564349908       -1.9473163914
 C         -0.3807394923        1.2566408937       -1.1679367920
 N          0.1683655931        0.1547784644       -0.4522980860
 C          1.5815962438        0.2390849472       -0.1706780859
 C          2.4916483404       -0.0715508731       -1.3802336545
 C          3.9307970162       -0.0212538636       -0.9677366855
 C          4.6679993435        1.1501687123       -1.0811956224
 C          5.9930072327        1.1983215573       -0.6812617600
 C          6.6130697713        0.0741878447       -0.1491099575
 O          7.8880758388        0.0016665541        0.2629058069
 C          8.7202417846        1.1335783290        0.1485164432
 C          5.8616753322       -1.1302704771       -0.0165267432
 O          6.5344774281       -2.1684051587        0.5097732559
 C          5.8866955577       -3.4095221106        0.6624822589
 C          4.5371014923       -1.1521790634       -0.4264891788
 C         -0.3216654930       -1.1715563337       -0.7512177558
 C         -3.5267430837        2.8559165074        0.7642989066
 C         -4.3374909846        2.5846834710        2.0312138299
 C         -2.9859348873        4.2829405015        0.8159270026
 H         -4.2857483492        0.9233261554       -1.2240753732
 H         -6.4349073413        0.4535963267       -2.0743182745
 H         -6.7209089162       -0.9370263480       -3.1482363492
 H         -5.1213911500       -0.1563850717       -3.1222948360
 H         -5.3074888472       -3.9494873272        2.1575933657
 H         -5.6456327460       -5.0633805808        0.8099729340
 H         -3.9638660501       -4.6102230090        1.1815342316
 H         -3.4033393973       -2.5253732854        2.1794047686
 H         -2.2702009600       -0.3909731585        2.3028965924
 H         -1.9707624863        2.3168808929       -4.1221568199
 H         -1.5499201287        3.0740819344       -0.9121823998
 H         -2.1780052203        0.2205200478       -1.9487743954
 H         -1.7214913749        1.6844798756       -2.9527212237
 H         -0.6312376224        0.9756820811        1.4965871052
 H          0.3901249100        1.9168869082       -1.5548780867
 H          1.8070592776       -0.4718126039        0.6290419154
 H          1.8040401165        1.2437006144        0.1968905317
 H          2.3008268078        0.6568235502       -2.1693423705
 H          2.2495918275       -1.0645799636       -1.7598433216
 H          4.2116105975        2.0351952820       -1.4972708870
 H          6.5416396084        2.1193512357       -0.7913983567
 H          8.3439213484        1.9688660662        0.7464298196
 H          8.8255734536        1.4478206300       -0.8939805090
 H          9.6899702945        0.8224891995        0.5321744607
 H          6.6320208654       -4.0775701070        1.0895924773
 H          5.0342739695       -3.3349509345        1.3449625608
 H          5.5522528335       -3.8079633420       -0.3001591889
 H          3.9629935944       -2.0615447437       -0.3409626256
 H         -0.1780851808       -1.4443198269       -1.8030114756
 H         -1.3824817186       -1.2385264907       -0.5143091025
 H          0.2077698531       -1.8894777773       -0.1276440047
 H         -4.2021487208        2.7865082268       -0.0955404405
 H         -3.7085743126        2.7154275844        2.9072396558
 H         -4.7451249281        1.5763955327        2.0371903804
 H         -5.1647560945        3.2870223681        2.0942304872
 H         -2.2165117598        4.3700173907        1.5774104449
 H         -2.5863664565        4.6131269175       -0.1399993853
 H         -3.7991139196        4.9559304956        1.0761826783
 H         -0.6195014330        2.5071110924        3.2715115894
