25
 energy: 145.026909496644 xtb: 6.6.1 (8d0f1dd)
C            3.16068184099703        1.12584439052586        0.18311430499244
N            2.26345699977830        0.01018110345290        0.05954405428823
C            2.59428064825529       -1.31191591126456        0.04085465394973
N            1.45211898848654       -2.03074495916216       -0.03088708061507
C            0.39745654809420       -1.17962663285226       -0.02088263051603
C            0.87482146682449        0.15080108100185        0.04803424840198
C            0.06954933272475        1.29980297664090        0.06258591428314
O           -0.74871171692588        3.77328617085701       -0.15316337836295
N           -1.29779898024132        0.91723621724679        0.01855851946435
C           -2.16289967611972        1.90678824745536        0.21235252184442
C           -1.83020042204808       -0.41101756061007       -0.05536856751612
O           -3.02850522413433       -0.60919009778214       -0.07174119802507
N           -0.92841190211497       -1.46514132566837       -0.06530039695882
C           -1.37507408703633       -2.83922035003627       -0.12833128196829
H            3.38869062603769        1.31325201327811        1.23623302138333
H            4.07712752072810        0.92129792838399       -0.36987391407372
H            2.64944038555719        2.00427633143553       -0.20464594775635
H            3.58637879874491       -1.73089554341439        0.01350620676013
H           -1.53889894946569        4.47549342735100       -0.43585749105107
H           -3.21669952762884        1.86809846157116        0.06071020881566
H           -1.61535441077301        2.89229384536231        0.38684449889399
H           -0.96698126993061       -3.42349844643071        0.69994788119929
H           -1.06513878664233       -3.30193838282113       -1.06929927081822
H           -2.46066013082326       -2.85572460528885       -0.06633860430036
H            1.41370342748492       -3.03982210718566       -0.06647499413162
