25
 energy: 132.192661194068 xtb: 6.6.1 (8d0f1dd)
C            3.15811680050627        1.06410815382596        0.16056784126205
N            2.27832586423257       -0.06336009050125        0.06712116398073
C            2.62368132898965       -1.36729406870169        0.01309714620549
N            1.49513131012622       -2.12057454165657       -0.04192917248111
C            0.42582720876301       -1.29048239221272       -0.02060931710822
C            0.88838771326363        0.03095981356613        0.05048781108623
C            0.10774786058774        1.18018980734320        0.07671151996349
O           -0.95866752730998        4.26864081897973       -0.04749700977519
N           -1.24638816849889        0.85926844687646        0.02882392728163
C           -2.11961060546895        1.86394658013428        0.07444502120589
C           -1.79233940564323       -0.47492278632253       -0.02122004545931
O           -2.98726670175210       -0.68413157796034       -0.02555576884862
N           -0.90797765800599       -1.54878609945833       -0.05096915008763
C           -1.41033146562649       -2.90541214930976       -0.13253650990479
H            3.47539625666304        1.22069837737997        1.19592172179205
H            4.04334129095396        0.90517952080254       -0.45671135581467
H            2.60794047653385        1.94385109700840       -0.17088421217746
H            3.61729710890079       -1.76414828322897        0.01116743046507
H           -1.39091590839842        5.10091872616998       -0.28905439323930
H           -3.17552817202941        1.58451253132252       -0.05317450095273
H           -1.65617209580318        2.98602408540703        0.01708127072544
H           -1.04735872835200       -3.49547573685633        0.71030173440007
H           -1.10359682680850       -3.37537892504683       -1.06992777168518
H           -2.49756665440363       -2.86418236502902       -0.09439818440056
H            1.48470884822839       -3.12711001630474       -0.09525142346634
