25
 energy: 104.262857906152 xtb: 6.6.1 (8d0f1dd)
C            3.32998845160473        1.17573661440879        0.08131459483901
N            2.37933159101187        0.08830008034774        0.04290712733158
C            2.72068419388873       -1.18796857225479        0.04664523675857
N            1.61580971682174       -1.96077077757827        0.03167945789356
C            0.48236812169597       -1.11890400395004        0.01800281471864
C            1.02238061011322        0.20563684484097        0.03017086914254
C            0.27551097057333        1.46212144175531        0.01097632507232
O            0.84172578750359        2.56894495794675       -0.04336406013885
N           -1.03150717838254        1.25392465260031        0.04667012853319
C           -1.97334597682813        2.31371278913443        0.03383633850377
C           -4.36472525248437        0.13396035059214       -0.51896835978305
O           -4.33074270503278       -0.98489472443426       -0.35967719470249
N           -0.75430126290096       -1.40931999371403        0.00048332764298
C           -1.27858448131645       -2.76084049330298       -0.01259534467270
H            3.82930214000250        1.20691945134772        1.04912717390576
H            4.08171464532349        1.05505623699073       -0.69810591021649
H            2.78182695636304        2.10722767523452       -0.06728367374758
H            3.72638014114555       -1.55965536425193        0.05686669114554
H           -1.49747341722068        3.29706723045395       -0.06792932438611
H           -2.69699510152967        2.17754274236501       -0.76935342125284
H           -2.57343985679651        2.30902065261716        0.94665865286594
H           -0.96618330984083       -3.35441855864572        0.86086307495121
H           -0.97845843190404       -3.32329334692248       -0.90915110607426
H           -2.37056328362142       -2.68634300867674       -0.00664554175512
H            1.60615660536329       -2.96675652157279        0.01397073171620
