25
 energy: 78.009508397039 xtb: 6.6.1 (8d0f1dd)
C            3.26616222069314        1.14941555054518        0.11201595387068
N            2.29958373989255        0.08724158623015        0.04202930485260
C            2.63856044675995       -1.19722116944747        0.08410518941052
N            1.51512824872551       -1.97027423436053        0.01914660916944
C            0.37409265768649       -1.16605710139327       -0.02601637652945
C            0.90046663990878        0.15782459252050       -0.02448505985427
C            0.19581701839350        1.30438572700737        0.00573367327243
O            0.51997010245095        2.46700528200171       -0.06326452101641
N           -1.82959084090569        0.96862291016202       -0.15945496190732
C           -2.17885655692492        2.36990540363743        0.02844203395565
C           -2.77759987514205        0.17492517142525       -0.31411162025742
O           -3.68065512340239       -0.57298714491762       -0.41652344317987
N           -0.86584978238387       -1.43755005340878       -0.04758154092298
C           -1.30095252474394       -2.79019632188311       -0.03103750642778
H            3.79454678331141        1.13811360395482        1.07081176075015
H            4.01832143546882        1.02572058514410       -0.67298630133752
H            2.78612441073283        2.12017096659064       -0.02206060939502
H            3.64552896579552       -1.54421035504907        0.12239018918864
H           -1.40199177148460        3.10695002100461       -0.19598987205516
H           -3.00342937714061        2.53241509069630       -0.64035275311386
H           -2.50354759287058        2.49725447719652        1.05688115949633
H           -0.89338972424677       -3.26858661410884        0.85885934806482
H           -0.95103621184246       -3.30361387994585       -0.92474233048656
H           -2.39582987814898       -2.84786766367481       -0.00277761008765
H            1.55471876076286       -2.96886004463975        0.03118508692938
