25
 energy: 83.584926763189 xtb: 6.6.1 (8d0f1dd)
C            3.28530670286098        1.15299356085056        0.10713500840148
N            2.32899410700785        0.08314016862196        0.03606575723896
C            2.67148521762774       -1.19647437427270        0.07281006045822
N            1.55804513660410       -1.97282907155805        0.02346644948153
C            0.41092545988560       -1.16696530054966       -0.01851402341124
C            0.92506151575705        0.16875062045913       -0.01512891801835
C            0.24544436270024        1.33328197902697        0.00842360447406
O            0.59078562596808        2.49111241621837       -0.03954051728068
N           -1.88331149653778        0.95254457447922       -0.07205936312226
C           -2.16961278302566        2.38121240552777        0.03088448043281
C           -2.92652468093369        0.29352519583016       -0.30334211090629
O           -3.77506627865196       -0.51624034320054       -0.41069409654003
N           -0.80474741285088       -1.47291897909479       -0.02960316847476
C           -1.24960224522644       -2.81971216522814       -0.02580433569885
H            3.79312142165629        1.13217901081930        1.07265810355255
H            4.03681074575705        1.03031643883659       -0.68104703293819
H            2.79235306856373        2.11413235057425       -0.01035905600945
H            3.67251323849580       -1.56591437223883        0.11288965237252
H           -1.40870371710951        3.09470765538061       -0.27328007367592
H           -3.01286499239478        2.52321688067488       -0.62045936112634
H           -2.40523247168167        2.56337952298899        1.07176595034217
H           -0.85167530309392       -3.31826216533416        0.85517193126533
H           -0.91062877621384       -3.32139010050651       -0.93127312541495
H           -2.33932736167256       -2.87644660966979        0.01352662928676
H            1.59058830693415       -2.97223995186475        0.03042668668157
