25
 energy: 8.555138444350 xtb: 6.6.1 (8d0f1dd)
C            3.25294580408530        1.17643863776134        0.08979789352517
N            2.26456087575815        0.12997710036192        0.04685134517532
C            2.56894289512383       -1.21332084311250        0.07803412281572
N            1.39103394506541       -1.93082933392601        0.02409001469783
C            0.32035972148037       -1.07910915637768       -0.02364049469193
C            0.85790141179134        0.20157425949182       -0.00129848569378
C            0.01693284415994        1.31185957915290       -0.05067931930646
O            0.43162489483063        2.47686808561212       -0.06419936460590
N           -1.45003185394864        1.00449002255590       -0.09743121166051
C           -2.20105790990421        2.23845393267198       -0.00859911683775
C           -2.09567766737876       -0.20964695303763       -0.19945550774238
O           -3.26684390726332       -0.47884921899095       -0.27172506784870
N           -1.05083506233209       -1.30347128471632       -0.08730444314043
C           -1.42752596055909       -2.69567293281349       -0.05189495198143
H            3.77295415950578        1.20836115688860        1.05607899555596
H            4.01384750256787        1.02851339458507       -0.68578556431265
H            2.74190129212056        2.12255367407329       -0.07151314964539
H            3.57053749982505       -1.60200701054683        0.08828923264360
H           -1.52127954224612        3.09968515236449       -0.06030364027120
H           -2.89124769189386        2.28620956683952       -0.83418508585456
H           -2.74325523306458        2.27077330122801        0.93408825700168
H           -1.04929970045549       -3.21002936458289        0.83950941080466
H           -1.06468134436906       -3.22193116086683       -0.93883500153005
H           -2.51177152310743       -2.70885040543481       -0.04262688986780
H            1.42931146949858       -2.93724672220313        0.02418327756405
