25
 energy: 87.231343307446 xtb: 6.6.1 (8d0f1dd)
C            3.29132522736033        1.15830309053204        0.11017727831124
N            2.34370346741265        0.07900186217398        0.07396255650868
C            2.69092060659715       -1.19512192413593        0.06609707134165
N            1.58341643821378       -1.97642055249780        0.03273535775569
C            0.42857455098369       -1.16972043819074       -0.00999965337917
C            0.93995166588819        0.16855208062122        0.01801962153363
C            0.26840107259040        1.34283273371119       -0.07021705187123
O            0.63606402251913        2.49711539080067       -0.02022850815660
N           -1.91820950624521        0.94928380444578       -0.06984156420329
C           -2.15851018478384        2.39483268461635        0.02645679996326
C           -3.00693217447237        0.33000109580659       -0.29520691638306
O           -3.85196982893093       -0.49287696058108       -0.40739118060008
N           -0.77480399905927       -1.50056002496390       -0.02780126724315
C           -1.24118394557671       -2.84208986328563       -0.02764372803687
H            3.79305784166518        1.15573060196976        1.07841356470533
H            4.04482467832348        1.03670228866286       -0.67936548355098
H            2.78411755217603        2.10861972945747       -0.01264725559814
H            3.69810844776020       -1.55021926770896        0.08234195848221
H           -1.38958049701047        3.09866148085576       -0.26919032623887
H           -2.99211145916396        2.55105266301139       -0.63571861771734
H           -2.35547560134476        2.57956796532815        1.07073098962671
H           -0.86150884751619       -3.35311313599238        0.85343993611977
H           -0.91587449879667       -3.34908820331887       -0.93571064007921
H           -2.32602028126058       -2.87016684935148        0.00998426577304
H            1.61731344998420       -2.97632628747165        0.02731938639898
