25
 energy: 52.902343646201 xtb: 6.6.1 (8d0f1dd)
C            3.25213598787238        1.16065345075762        0.10805773970839
N            2.25644134351349        0.11965465660047        0.06807475498234
C            2.59030020027665       -1.19072184307558        0.09641033558141
N            1.44069876818470       -1.94639905760379        0.02388635807438
C            0.33399828442296       -1.13056022537884       -0.02980742895459
C            0.85527478482223        0.17564320091728       -0.00563220813563
C            0.08433433118236        1.30148436310707       -0.05636779229336
O            0.44520685844529        2.46912608075945       -0.07020654567850
N           -1.63312681262230        1.01751126015627       -0.15885949153681
C           -2.19029226394938        2.33029409228938        0.01495144243575
C           -2.41540509642521       -0.02293202649563       -0.27026218538966
O           -3.47514254121412       -0.53675476009011       -0.39426359770518
N           -0.97494929367654       -1.37280291409556       -0.07108026064426
C           -1.36186111849264       -2.74775462056319       -0.03931792378669
H            3.79581087429508        1.16815063370905        1.06206508560010
H            3.99916250461096        1.00457714159235       -0.67695566376761
H            2.77199060998052        2.12666282865721       -0.04271539724594
H            3.59479553294368       -1.54776556684949        0.10400225974798
H           -1.42849897026545        3.11588626053269       -0.11911150079087
H           -2.95969738891934        2.43718311403319       -0.72735116704569
H           -2.61581355567428        2.41532317874792        1.01422617503824
H           -0.95787980701038       -3.24034287089617        0.85175965328449
H           -1.00046987948062       -3.27052893370294       -0.92771067537535
H           -2.45129121409670       -2.80015045559912       -0.01766406698485
H            1.49825473574791       -2.94889783747692        0.02814916147531
