25
 energy: 32.146833535297 xtb: 6.6.1 (8d0f1dd)
C            3.25302402383659        1.16540559707810        0.10352382556220
N            2.25257415363811        0.12610764388563        0.06339402025891
C            2.57481055606973       -1.19531280085709        0.09708734173390
N            1.41670101055913       -1.93994980720577        0.02396719878315
C            0.32344436274860       -1.11019317841702       -0.03124100728239
C            0.84893861996107        0.18127348292884       -0.00636597560978
C            0.02966757602521        1.29280607256454       -0.06916118212349
O            0.43767730934360        2.45341280213469       -0.07627468570887
N           -1.54818526491571        1.01753908037744       -0.14136591261851
C           -2.19058390898499        2.29711001736123        0.00554075036522
C           -2.26805478997800       -0.11622037262411       -0.24308527995827
O           -3.38974646008647       -0.51247614470601       -0.35553745702200
N           -1.02035328698520       -1.33697486008102       -0.08137353715786
C           -1.38808128788444       -2.72475443241442       -0.04461799480948
H            3.79362261384616        1.18172886405476        1.05964043122690
H            4.00205251953302        1.00959589090969       -0.68015479210551
H            2.76374306002715        2.12535258584756       -0.05107138602901
H            3.57910372056109       -1.56538334230857        0.10254338599379
H           -1.45405046038754        3.10995719926872       -0.09625422510579
H           -2.93386404125997        2.38543441103066       -0.76705574680029
H           -2.66054647720296        2.36569540137232        0.98644743315732
H           -0.98712954129734       -3.22329526983231        0.84632852522092
H           -1.02109610224227       -3.24879676580215       -0.93119821137293
H           -2.47430772090465       -2.76978287799449       -0.02662731707454
H            1.47500724786784       -2.94417695764691        0.02743837125011
