25
 energy: 105.092503098994 xtb: 6.6.1 (8d0f1dd)
C            3.32723043349937        1.17736868356787        0.08051329887951
N            2.38028311847274        0.08670378998696        0.04390438612248
C            2.72354382501868       -1.19170447423257        0.04400048440388
N            1.62067936428244       -1.96833524341909        0.03240506995401
C            0.47623221848871       -1.13197643799277        0.02045330615104
C            1.01635234350699        0.19431580998321        0.03511186833075
C            0.25259280869663        1.44279201167159        0.02212604196519
O            0.80525872795092        2.55707933555869       -0.04135811373678
N           -1.06482117281356        1.22834322490310        0.04311438359448
C           -1.99188195464093        2.30352870880603        0.02764032247764
C           -4.24795651468951        0.12058221374034       -0.53127726739075
O           -4.43048460403801       -0.97951782928689       -0.36157375239474
N           -0.76667085936890       -1.41655030832584       -0.00538379628325
C           -1.26992906640502       -2.77624009631174       -0.01244014497071
H            3.83279613622012        1.21971228129934        1.04822669611171
H            4.07676730093184        1.05322005839640       -0.70087260301162
H            2.78379862933248        2.11133978346385       -0.07271602917332
H            3.73258359508134       -1.55539833899743        0.05691844569418
H           -1.47783215032607        3.27191935667606       -0.05348527739642
H           -2.70375228530936        2.19928214798842       -0.79983142496811
H           -2.61026676930428        2.30743586563568        0.94952399956227
H           -0.97213857872827       -3.37782041550938        0.86256661784616
H           -0.98023415248422       -3.34536512742820       -0.90793527982490
H           -2.35489591742528       -2.69018597987795       -0.00863622680940
H            1.62114862494054       -2.97672901777701        0.01624479424481
