25
 energy: 108.327961519054 xtb: 6.6.1 (8d0f1dd)
C            3.33104090671233        1.17454455242668        0.08468181076590
N            2.38808410262624        0.07793399565109        0.04050887304638
C            2.73346244961828       -1.20736961877749        0.03516857788743
N            1.62446868225173       -1.97782150984781        0.03137539688383
C            0.46304670244711       -1.15349977617485        0.02849749114876
C            1.00865284633073        0.17486177780657        0.03920688067125
C            0.22954554926171        1.42109576228951        0.01787951630446
O            0.76656245582958        2.53709082098461       -0.03701719499173
N           -1.12434724377366        1.20169582803618        0.03162028717552
C           -2.01064201787277        2.32194665342508        0.02345149007273
C           -4.03663119067365        0.20449205029576       -0.54849483331997
O           -4.36654605917466       -0.86701175586624       -0.39094687846691
N           -0.78233390992923       -1.45212849435314       -0.01325804956236
C           -1.25275512116627       -2.81566521112897       -0.00934462511493
H            3.83294498228356        1.22523804372103        1.05539765661811
H            4.08864844395125        1.06380681239515       -0.69334890202461
H            2.78221484598533        2.10830621040074       -0.06721283610388
H            3.75640023006389       -1.55018260496588        0.06545329122161
H           -1.42176832837031        3.24929092637378       -0.05565074113704
H           -2.73870378948832        2.26638463148662       -0.81282851366585
H           -2.59814572428996        2.36376622908063        0.98040612732775
H           -0.96630876558040       -3.43158973294859        0.86180442078064
H           -0.97829748735248       -3.39124210398216       -0.90565232223711
H           -2.33939418308176       -2.73662754846962       -0.00254718703716
H            1.63360768245969       -2.98463362696367        0.02256393710087
