25
 energy: 110.844622037899 xtb: 6.6.1 (8d0f1dd)
C            3.31694071005764        1.16405518584249        0.09222668677091
N            2.36710717467168        0.07033081581270        0.04659610772700
C            2.72719840955721       -1.21602886372908        0.03038092637493
N            1.61315140610011       -1.98123616536736        0.02809150304520
C            0.44274170791402       -1.16182514023540        0.03019868270764
C            0.98049357666063        0.16318305880293        0.04108812975862
C            0.18534262170305        1.40435629315511       -0.00518824525672
O            0.74415074311926        2.51042296872105       -0.02438825983576
N           -1.19425707369199        1.18119002630149        0.01610548979249
C           -2.01602406181950        2.35624794566150        0.02251294815175
C           -3.80716664759490        0.28315933393890       -0.51076887256378
O           -4.26504227099771       -0.73874767595904       -0.33319257945503
N           -0.78758010012698       -1.49807548750074       -0.01500278026340
C           -1.25834835947149       -2.84882953035612       -0.01781545501896
H            3.82410196856564        1.19030609333252        1.05979170279803
H            4.07957092397457        1.06555799335839       -0.68751491126776
H            2.77933704365527        2.10432342481347       -0.04019673501636
H            3.75225032095639       -1.54688502569173        0.06430814101614
H           -1.41105809578598        3.25034569081662       -0.12130740399641
H           -2.78106192342395        2.35238839521218       -0.76510962680332
H           -2.51928607702142        2.44021285448930        0.99921867039230
H           -0.92998601173649       -3.41851860543140        0.86147985792808
H           -0.95915608988571       -3.39583462510355       -0.92294896984149
H           -2.35111143020570       -2.79019538616608       -0.00385382375619
H            1.61454024159980       -2.98444871359363        0.02214814947978
