25
 energy: -2.628515355898 xtb: 6.6.1 (8d0f1dd)
C            3.24914813599611        1.17758694182356        0.08736207204237
N            2.29257777539393        0.11440934862622        0.03624362828264
C            2.59357395429293       -1.23354487033251        0.05206611364758
N            1.40220205985801       -1.93097055589859        0.01486457294870
C            0.35670140201143       -1.06332167148629       -0.00907209563858
C            0.89438134831888        0.21570687619393        0.01046862659820
C            0.06902658386559        1.34626737470344       -0.01801029740930
O            0.46635092795907        2.51584510614642       -0.02272613353476
N           -1.35256434725270        1.02024405903981       -0.05461836987931
C           -2.20632365570523        2.19206293907856       -0.02607505150565
C           -1.95594028440150       -0.20921194514572       -0.12026158165969
O           -3.14492559954148       -0.42618901722548       -0.16219822754128
N           -1.00276346072698       -1.29294889071721       -0.05738467069734
C           -1.44958321472841       -2.66682444631439       -0.05276899129149
H            3.74516524124871        1.21597272472812        1.06397723148479
H            4.01890087388300        1.04419605135616       -0.68076867424434
H            2.71849769135101        2.11235058263094       -0.07972021451731
H            3.58348454137178       -1.63668832943442        0.05778593046056
H           -1.58938414818187        3.09391944860321       -0.03803380561257
H           -2.84965231256068        2.18698322543306       -0.89531888038818
H           -2.81113995892660        2.17219079161156        0.87749895152060
H           -1.10843182927508       -3.20301496158130        0.83842291098575
H           -1.10301365078643       -3.19573244794669       -0.94461491377933
H           -2.53479183079938       -2.63100992751704       -0.05629031932322
H            1.39603067461351       -2.93692855036556        0.00775304035332
