25
 energy: 120.014582317368 xtb: 6.6.1 (8d0f1dd)
C            3.28902897080253        1.16182681417830        0.10517348501726
N            2.32015978697653        0.08754792977081        0.05350892618460
C            2.69243414926867       -1.18813947875961        0.05517870136298
N            1.60233305524858       -1.97868735868986        0.02667606887964
C            0.43863529686084       -1.17004245360012       -0.00696373308820
C            0.93421303394023        0.16220117464317        0.01589694601390
C            0.10328031036425        1.35903743519677       -0.03045935569896
O            0.65588156627945        2.46805110615228       -0.03356476374717
N           -1.31717541940896        1.14446112894190        0.00562017154775
C           -2.04105813338877        2.39493131918633        0.03151368819502
C           -3.43620039376508        0.33272309631605       -0.44202948624523
O           -4.07019263618170       -0.60987739054850       -0.35822401234504
N           -0.76819778863567       -1.52795144821313       -0.02424214876563
C           -1.25000118975712       -2.85470121332779       -0.02910431337662
H            3.79806714564591        1.15736973325475        1.07162892773159
H            4.04640979207065        1.04355095301378       -0.68010073210647
H            2.77524960598035        2.11166866169127       -0.01812860110808
H            3.70833130292974       -1.53002345876232        0.08715896441143
H           -1.38567100449125        3.21429439447427       -0.22194117672159
H           -2.88971780406701        2.45364365707537       -0.65309866391353
H           -2.37083400964137        2.52532250196969        1.05962217534748
H           -0.88552244007478       -3.37938585916258        0.85358334885340
H           -0.93255184662956       -3.36848931443064       -0.93919861228362
H           -2.33281649554335       -2.83561286400337        0.00313099497252
H            1.64397640871598       -2.98044955578842        0.02451066436072
