25
 energy: 80.262889225969 xtb: 6.6.1 (8d0f1dd)
C            3.27644108826037        1.15063809209082        0.11078346868289
N            2.31578169562261        0.08301795693932        0.03673476057869
C            2.65666359518459       -1.19692160574518        0.08011482175570
N            1.54020667909950       -1.97295921843024        0.02217528600287
C            0.39331727448601       -1.16810200537497       -0.02499541841897
C            0.91449013844941        0.16290951169560       -0.02620537267190
C            0.21939361061033        1.31649646911845        0.00352098314844
O            0.55459597765707        2.47668588443434       -0.05801605787518
N           -1.87861312907856        0.96059088514189       -0.11447157205223
C           -2.17561571062243        2.38574926007708        0.03879570446646
C           -2.87703823608798        0.23581880178666       -0.30457192912450
O           -3.75172909016269       -0.55071864756698       -0.39398035682616
N           -0.83428841346004       -1.45656503338306       -0.04389636541918
C           -1.27410040774341       -2.80654717266379       -0.03081029372348
H            3.79070452703586        1.12681825701991        1.07443741378965
H            4.02969320064870        1.02886252759769       -0.67450683474077
H            2.79137520438775        2.11886993661535       -0.01297300959552
H            3.66110652894832       -1.55674714638261        0.12316048825504
H           -1.40053972570818        3.10249148722604       -0.23726116146920
H           -3.02227888720154        2.56670564722339       -0.59471658203937
H           -2.44348421197247        2.53666369502334        1.07659971255212
H           -0.86912979660328       -3.29200191491771        0.85481422391148
H           -0.92545511073280       -3.31363823553741       -0.92787265138165
H           -2.36813711198476       -2.86963418876998        0.00108129964985
H            1.57775435518351       -2.97174432063120        0.03190075859960
