25
 energy: 108.977727711526 xtb: 6.6.1 (8d0f1dd)
C            3.32650272018578        1.16847721136704        0.08771158787478
N            2.38142689980198        0.07290743503677        0.04379478000416
C            2.73399502565287       -1.21333216739078        0.03248657907065
N            1.62134035862677       -1.97974855099232        0.02966670905820
C            0.45289008707145       -1.15881094312523        0.03156661430860
C            0.99652117157523        0.16822824862618        0.03877673533625
C            0.20979684579583        1.41591150039607        0.00738088204957
O            0.75812342909124        2.52690081645860       -0.01891487681572
N           -1.15624545483174        1.19413313318425        0.02315477241259
C           -2.01134263814566        2.34176220942670        0.02191562765667
C           -3.92293707139624        0.22329851603212       -0.52925167415921
O           -4.30201972878575       -0.82587847377038       -0.32324149285531
N           -0.78569616526540       -1.47865824994363       -0.01776118874927
C           -1.24825805867001       -2.83742805883579       -0.01290515465687
H            3.82956387708749        1.20692860300646        1.05752635280287
H            4.08814938740233        1.06721562444491       -0.69179944729036
H            2.78168325141011        2.10442046178259       -0.05430959801310
H            3.76323214429347       -1.54574111580704        0.06456239414309
H           -1.41599451820237        3.25513885327741       -0.08795511745334
H           -2.75266515735557        2.31445752909466       -0.79364160724446
H           -2.56228465020041        2.40203385129304        0.98547999547122
H           -0.94524107172529       -3.42430907696855        0.86564359653743
H           -0.96564841772657       -3.40344547053515       -0.91123091175807
H           -2.33694832872806       -2.77532886680146        0.00039222973133
H            1.63686045997693       -2.98477683534593        0.02495508627022
