25
 energy: 71.042738545423 xtb: 6.6.1 (8d0f1dd)
C            3.25537664680683        1.15630658652085        0.11122489938523
N            2.27305465038217        0.10620128246648        0.05791075501408
C            2.61569087004588       -1.19241500860736        0.09122028063079
N            1.47988623862627       -1.96011391494637        0.01692562370385
C            0.35450400732267       -1.15662844026537       -0.02630989948440
C            0.87527707481610        0.16374263797155       -0.01673796472246
C            0.15058501132253        1.30080198498757       -0.01217077167053
O            0.47501204828549        2.46615434975091       -0.06529669362845
N           -1.71658063111811        0.98987360612492       -0.16961140127486
C           -2.17940916964054        2.35206231634240        0.02193404948416
C           -2.59908505710392        0.08869094596543       -0.30003180300058
O           -3.57506955289385       -0.55984159481987       -0.41590732103316
N           -0.91280993941305       -1.41370804136952       -0.05022202752240
C           -1.33023007099392       -2.77386608732571       -0.03447348541603
H            3.79540789369168        1.15512145340760        1.06615760289902
H            4.00594172840295        1.01792589661384       -0.67410101663336
H            2.77683989707960        2.12503965387223       -0.03251729604517
H            3.62185562837193       -1.53645021035266        0.11064948128728
H           -1.40916996920853        3.11542596730636       -0.15631275130163
H           -2.97952238319485        2.48681851861240       -0.68287268910417
H           -2.55838346878427        2.46032201955403        1.03665968596370
H           -0.92628082620155       -3.25985547426681        0.85621697670684
H           -0.97542268691436       -3.29087082499442       -0.92622600651315
H           -2.42345619072315       -2.82654601486668       -0.01059815696619
H            1.52767426834942       -2.96001659085224        0.03049145015857
