25
 energy: 106.686471170887 xtb: 6.6.1 (8d0f1dd)
C            3.32930042191694        1.17990054391159        0.08297397727226
N            2.38625495736638        0.08208287733011        0.04277822680135
C            2.73081466934761       -1.20065748286607        0.03877235507707
N            1.62661920934505       -1.97707956343563        0.03495866586609
C            0.47229386009851       -1.14511037079250        0.02565020125174
C            1.01468824253705        0.18173994354854        0.03977853220505
C            0.23863223641816        1.42510772388529        0.02684384415764
O            0.77892980089507        2.54245210348295       -0.04028399413193
N           -1.09514303643744        1.21052085627654        0.03923363544626
C           -2.00554170688351        2.30495614294218        0.02926415437353
C           -4.16346670874678        0.14761757116079       -0.54348318781284
O           -4.37946268544625       -0.95426884118191       -0.38555247368410
N           -0.77631346272837       -1.42892123920859       -0.01115249610178
C           -1.25707354613930       -2.79365423647596       -0.01084643314360
H            3.83242436924471        1.23163176827029        1.05327588174826
H            4.08371940899392        1.05890206967820       -0.69567379169797
H            2.78229993802021        2.11510606405040       -0.07275952409108
H            3.74591326667252       -1.55654390538159        0.06057629910115
H           -1.45144137983243        3.25398389771077       -0.05046705906449
H           -2.72489657163311        2.23519052104378       -0.80316823249617
H           -2.61764207552116        2.32848601014341        0.97301540103477
H           -0.96848870597635       -3.40247475714822        0.86353471696372
H           -0.97766912317026       -3.36667319455907       -0.90729016716509
H           -2.33661234266499       -2.70396681004856       -0.00482228604770
H            1.63094826781776       -2.98765249471405        0.01855054381049
