25
 energy: 113.649967319985 xtb: 6.6.1 (8d0f1dd)
C            3.30640794594873        1.16286569870826        0.09643274208257
N            2.35004241378851        0.07545081340156        0.04860496166507
C            2.71541440499164       -1.20726899715808        0.03951256936867
N            1.60780965235533       -1.98069124860270        0.02711791073085
C            0.43750582799250       -1.16599090276966        0.01963497873889
C            0.96225376188573        0.16098779682793        0.03444465329988
C            0.15676286308590        1.38944070237381       -0.01552410558637
O            0.71688356719743        2.49328724795093       -0.03053897804322
N           -1.23954752534618        1.16756212144999        0.01226656077480
C           -2.02189061223174        2.37309581302411        0.02469860361944
C           -3.68289549065340        0.31795395338855       -0.48146747431151
O           -4.24577098001273       -0.65781183812296       -0.33880331416591
N           -0.78384163207457       -1.51677009996481       -0.01526996243418
C           -1.26710490156393       -2.85752881410941       -0.02519357956956
H            3.81714705212994        1.17513392065008        1.06219505266380
H            4.06757990709001        1.05928844883477       -0.68558900119044
H            2.77581562877446        2.10726496748279       -0.02960143031120
H            3.73622792891267       -1.54456035123744        0.06986748830045
H           -1.39723338807952        3.24295070629230       -0.16121929267952
H           -2.81577855357446        2.38667902329479       -0.73005514907845
H           -2.47380045544514        2.48853509293033        1.01828038294613
H           -0.92522323006152       -3.40702209516775        0.85832440716982
H           -0.95826457900669       -3.38800240894955       -0.93399449057324
H           -2.36232535466513       -2.80162361809945       -0.01028123107919
H            1.61323564061437       -2.98325893768898        0.02191056915784
