25
 energy: 0.000000000000 xtb: 6.6.1 (8d0f1dd)
C            3.23720163006194        1.16630919979326        0.08434469647475
N            2.29877817382611        0.07527477071623        0.03981603040599
C            2.58028210190900       -1.21425402444508        0.03006176031096
N            1.43813958087363       -1.93419271955128        0.00098261760884
C            0.39035688448383       -1.05887472636071       -0.00790371836672
C            0.93510056364412        0.21347819449412        0.01709077491437
C            0.09450143893243        1.40504303904423       -0.00410947031874
O            0.49712751527797        2.54126714362870       -0.00342325688240
N           -1.25076640035757        1.06271879480407       -0.03085478223738
C           -2.21907211982101        2.15522099834493       -0.05001256985998
C           -1.81739487048744       -0.20012725993278       -0.04692818574614
O           -2.99983886758376       -0.37846417018721       -0.07008878229737
N           -0.92618586207120       -1.30210215599479       -0.03682761578324
C           -1.46982264913417       -2.64643102187190       -0.06029820460571
H            3.71247264356769        1.21471455160235        1.06488849150277
H            4.00791497605742        1.03430808813993       -0.67357694370751
H            2.69910007168542        2.09770118228144       -0.09130154882931
H            3.56654120610678       -1.63682992603973        0.04233140067262
H           -1.67107961066214        3.09322851271934       -0.02552706933167
H           -2.82428953597071        2.09428624779827       -0.95318082946668
H           -2.87644029173232        2.07745725625962        0.81450067533302
H           -1.17061996399332       -3.19584890659852        0.83242232437030
H           -1.14560257411436       -3.17511610292205       -0.95688275822323
H           -2.55549792440841       -2.55659984320617       -0.07459039797972
H            1.38130855184625       -2.94313852034425       -0.01389874181052
25
 energy: -3.393994925495 xtb: 6.6.1 (8d0f1dd)
C            3.24159701189784        1.17327157140139        0.07961923084174
N            2.30604407258639        0.09143866030104        0.03565578619490
C            2.60292583875074       -1.23431104471178        0.02373068264967
N            1.43488196849634       -1.94683554663071        0.00025571827594
C            0.39940417039558       -1.06641879878229       -0.00197462292090
C            0.92696949647597        0.21429998779666        0.02128587184373
C            0.09190908893758        1.38564066674983        0.00623123216428
O            0.49007126727224        2.55049123754839        0.00896119397714
N           -1.27393309512109        1.04546701214058       -0.04312551590394
C           -2.22768329877053        2.16314720955927       -0.06891257221889
C           -1.82604074771359       -0.21416107681762       -0.04246062517595
O           -3.02077081655501       -0.40607224685776       -0.05335111312126
N           -0.93047463096275       -1.31370091381573       -0.02481969319965
C           -1.45792373791073       -2.66122025455461       -0.04437474920986
H            3.72193113383223        1.22028230862096        1.06036121353806
H            4.00856206164992        1.03672006469366       -0.68428088410987
H            2.69500748083450        2.09744246031655       -0.09666857172296
H            3.58323092195536       -1.65499657183610        0.02803101961386
H           -1.65230480630503        3.07806638488924        0.05207131519821
H           -2.81802783387722        2.32558855612584       -1.00754176731058
H           -2.93866512879234        2.03907360202972        0.74472862075806
H           -1.15048667793079       -3.21034788230900        0.84798866606115
H           -1.12540089062092       -3.19177327251506       -0.93911741568160
H           -2.54373150063375       -2.58101200405689       -0.05915304782524
H            1.37512332004529       -2.95105150711358       -0.01610607656873
25
 energy: 6.485880679233 xtb: 6.6.1 (8d0f1dd)
C            3.24463447181375        1.17569595972257        0.07112862824642
N            2.30842918893247        0.10631500898176        0.02855339152103
C            2.62388557637428       -1.25541633490494        0.01378035173149
N            1.42979189665331       -1.95788918950169       -0.00123887542814
C            0.40903303266299       -1.07811627089262        0.00760954586883
C            0.91146379538073        0.21378779438899        0.02708323046962
C            0.08595258979353        1.35600133139601        0.01099401371727
O            0.47176068654350        2.54425162776575        0.02727752384601
N           -1.31357820307659        1.02927640094922       -0.07543865429120
C           -2.23860889471475        2.18422037990515       -0.09554312802784
C           -1.83530729450482       -0.23200981442297       -0.03225925416623
O           -3.03536502117693       -0.45098679733203       -0.01809466354364
N           -0.93556094165612       -1.32788792286965       -0.00293032831656
C           -1.43789372865322       -2.68271136831196       -0.01849916994579
H            3.73420741772002        1.22572727540701        1.04996896112439
H            4.00857445430723        1.03787413651789       -0.69881551431483
H            2.69254008767333        2.09528348016485       -0.10485589104678
H            3.59873552422652       -1.66968198044756        0.00497013484743
H           -1.62479043960586        3.06112901421834        0.19253050628825
H           -2.77516450208061        2.67814877594254       -1.08728973790583
H           -3.04675771892405        1.96463526987627        0.61976644853197
H           -1.11975652366531       -3.23177784744977        0.87298241089181
H           -1.09432801505174       -3.21593287738892       -0.91070729245723
H           -2.52443200116330       -2.62161599373805       -0.03407724894063
H            1.37474923012790       -2.95929145580420       -0.01986149255254
25
 energy: 21.241644046743 xtb: 6.6.1 (8d0f1dd)
C            3.24587484189506        1.17058252464864        0.06496034287696
N            2.30673372473983        0.10678731308521        0.02307497572928
C            2.63127482633415       -1.27018470075337        0.00351955873517
N            1.42869579467325       -1.96714657073529       -0.00617426104492
C            0.41349194305783       -1.08996172196853        0.01539095455678
C            0.90134025909730        0.20890547150061        0.03278817687035
C            0.07988206669426        1.34136522779821        0.01263070853175
O            0.45852951421397        2.53575311805184        0.04872501906684
N           -1.34401883494461        1.03244516647920       -0.10824053592881
C           -2.24769421369560        2.21897667151137       -0.12024423362167
C           -1.84251479169997       -0.24056314268978       -0.01884351372885
O           -3.04114067445947       -0.48613964018240        0.02006455776061
N           -0.93714170561601       -1.33635578505038        0.01853085504156
C           -1.41730695650905       -2.70113735714493        0.00496431850397
H            3.74296783003608        1.22245618832290        1.04120300158391
H            4.00759124510595        1.03452491646506       -0.70874624790355
H            2.69439940877431        2.09131301238161       -0.10821448027865
H            3.60697001980489       -1.67939279345576       -0.02211928684678
H           -1.63318992786421        3.05040164729925        0.31554706601369
H           -2.72166101879798        2.95237308548551       -1.12787821578859
H           -3.14592627947189        1.91181304989040        0.47680728112259
H           -1.08916624487696       -3.24975705819300        0.89475344256275
H           -1.06249899654919       -3.23375814521880       -0.88517723983999
H           -2.50498847832233       -2.66490439221147       -0.01149447850460
H            1.38171131631666       -2.96936748314415       -0.02879386932255
25
 energy: 31.685959616714 xtb: 6.6.1 (8d0f1dd)
C            3.24624907638475        1.16061996449334        0.06365232209101
N            2.30393879495427        0.09681349199285        0.02021361155879
C            2.62891053864600       -1.27738529481512       -0.00339166551144
N            1.43167280594525       -1.97355309666640       -0.01300063829383
C            0.41436588756426       -1.10001571242377        0.01946083285759
C            0.89835616083561        0.20079958906922        0.03734290303739
C            0.07643066463571        1.33742407748961        0.01155366556693
O            0.45028172954540        2.52454265053038        0.06963556587468
N           -1.36005263294130        1.04357789490537       -0.13289360523204
C           -2.25757471511794        2.24638379443247       -0.13548357445893
C           -1.84592419761623       -0.24230376310104       -0.00310664735114
O           -3.03729219901016       -0.50659343090004        0.05693338477337
N           -0.93548271504304       -1.33951626597602        0.03465822591383
C           -1.39993664027991       -2.71357636416386        0.02073607750002
H            3.74653798372502        1.21210746949869        1.03809115568910
H            4.00693095632343        1.02787043937105       -0.71119442566348
H            2.69849722406020        2.08532469891697       -0.10564957443947
H            3.60853466455196       -1.68263080041076       -0.04767740775773
H           -1.68258035810270        3.02751217790036        0.37953117887802
H           -2.68959590483549        3.14566918265903       -1.12692217150224
H           -3.19736394545134        1.89917757078057        0.35006380390812
H           -1.06385582297889       -3.26041797221698        0.90920275537630
H           -1.03454209399381       -3.24227437020123       -0.86820018049109
H           -2.48810555286613       -2.70217205470381        0.00322968614310
H            1.39381495900132       -2.97835527428892       -0.03975138231959
25
 energy: 36.521604156138 xtb: 6.6.1 (8d0f1dd)
C            3.24589449377634        1.15231560708234        0.05899935321120
N            2.30232952341564        0.08491555906270        0.01583314098350
C            2.62077535615671       -1.27348699976631       -0.00365743891699
N            1.43680354259266       -1.97435193304949       -0.01497598181249
C            0.41197691701588       -1.10443906032677        0.01752876776892
C            0.90175852121938        0.19440076787695        0.03691220848263
C            0.07733219815803        1.34155071166773        0.01105297121485
O            0.44710250653675        2.51726210086201        0.08390502830739
N           -1.35702960316237        1.05105706015720       -0.14569864267733
C           -2.26367029107058        2.25171819690823       -0.14227580087068
C           -1.84621334512719       -0.23970483014442       -0.00139460969077
O           -3.02936895204936       -0.50720066215067        0.07821712516792
N           -0.93285709375623       -1.33798590582437        0.03900234882943
C           -1.39389668078070       -2.71600879071008        0.03160637472698
H            3.74468962765049        1.20309945362484        1.03310458172474
H            4.00586496061191        1.01912469996223       -0.71514743533320
H            2.70142070111001        2.07961720889737       -0.10984055495507
H            3.60381364891725       -1.67647101191118       -0.06284175494214
H           -1.73631194670006        2.99037617025964        0.45639856851996
H           -2.65097170482827        3.25468394301029       -1.12023074745581
H           -3.22473232587237        1.87597316728200        0.23878386466498
H           -1.05384749464642       -3.25575579911429        0.92247912946841
H           -1.02341329119129       -3.24313099357806       -0.85529336566669
H           -2.48085072958055       -2.71738605653174        0.01411468818892
H            1.40561612954058       -2.98114400137421       -0.03954792279141
25
 energy: 35.341395787465 xtb: 6.6.1 (8d0f1dd)
C            3.24679121710904        1.14838060512687        0.05497883458621
N            2.30346465724686        0.07800650560807        0.01212318371177
C            2.61461061484854       -1.26624695536602       -0.00100356454858
N            1.43946059925350       -1.97189845156911       -0.01530969847422
C            0.40933518318370       -1.10283094764394        0.01283013207762
C            0.90692516962475        0.19331645685596        0.03320637265212
C            0.08231098234577        1.34736165811892        0.01062499856819
O            0.45097078831075        2.51703510955219        0.09427124165459
N           -1.34322613480350        1.05486186191238       -0.14359463391178
C           -2.26114129305935        2.24670016676338       -0.14070399081064
C           -1.84433338643954       -0.23466937260688       -0.00060421782510
O           -3.02338496301655       -0.49657900208583        0.08775011938289
N           -0.93151419067319       -1.33415146534813        0.03676934090782
C           -1.39643055709464       -2.71227014735508        0.03488181552811
H            3.74339039652492        1.19878658946130        1.02939501636115
H            4.00649556247929        1.01329780618998       -0.71824739867121
H            2.70308893685485        2.07569720151065       -0.11501396623628
H            3.59804500226629       -1.67084957474263       -0.06834082292295
H           -1.78585373154625        2.96533757900212        0.50065927791710
H           -2.61563289230472        3.26854731744825       -1.10309268794704
H           -3.23469303464937        1.85300020992827        0.16472625145200
H           -1.05577833825629       -3.24754016408395        0.92766719690903
H           -1.02686955467590       -3.24097359995514       -0.85048809309676
H           -2.48242728052746       -2.71411322752847        0.01903134719949
H            1.40861091493479       -2.97917755702120       -0.03548215831627
25
 energy: 31.555026195801 xtb: 6.6.1 (8d0f1dd)
C            3.24793502740490        1.14832914449520        0.05117154842036
N            2.30528049361724        0.07695769633559        0.00938804380698
C            2.61248846148177       -1.26186033393719        0.00281838262955
N            1.43912258485964       -1.96970494529387       -0.01404761195974
C            0.40775590893346       -1.09874267954517        0.00924889783160
C            0.90974524601241        0.19597744642705        0.02892664935056
C            0.08512306870148        1.35205982379453        0.00885346252256
O            0.45487115365741        2.52170929647415        0.09662230982309
N           -1.33212226212423        1.05723148101128       -0.14267259414344
C           -2.25774343860835        2.24247682932657       -0.14271750822239
C           -1.84324222462345       -0.22970979591412       -0.00245053301041
O           -3.02251976019308       -0.48611933384076        0.08886429425187
N           -0.93187730528881       -1.33035432163123        0.03388349410970
C           -1.40084378397737       -2.70739376782873        0.03682959466330
H            3.74361788872388        1.19868944466911        1.02579156894975
H            4.00754446557353        1.01087645091147       -0.72163726204309
H            2.70372486271373        2.07460793316089       -0.12003426606276
H            3.59438506361567       -1.67032331334052       -0.06978985299876
H           -1.81748494357374        2.95172432147369        0.55294894506589
H           -2.58264838139628        3.24654662474187       -1.09254834863845
H           -3.23446575214550        1.82758866496056        0.11208352757877
H           -1.06064326967459       -3.24049783820543        0.93090366875641
H           -1.03366594625690       -3.23918136261985       -0.84739079023564
H           -2.48682960204777       -2.70532643819760        0.02238373762565
H            1.40470711255128       -2.97653242525553       -0.03039546192412
25
 energy: 24.555157763193 xtb: 6.6.1 (8d0f1dd)
C            3.24909456028887        1.14951772850807        0.05056289756790
N            2.30693368141917        0.07809400760283        0.00827111203376
C            2.61160532809228       -1.25899768198707        0.00750074131884
N            1.43654993125225       -1.96725001640124       -0.01424362245010
C            0.40625846569691       -1.09258154719491        0.00648671789179
C            0.91125097835665        0.20063583020897        0.02564990795327
C            0.08591369626664        1.35646269960710        0.00816737019720
O            0.45873219270726        2.52734414797163        0.09566416534760
N           -1.32204050761912        1.06128735232031       -0.13585006462562
C           -2.25375436680057        2.24323261037446       -0.14003308078141
C           -1.84239618122321       -0.22295650288553        0.00134324033598
O           -3.02341218719912       -0.47377340986513        0.08920985714542
N           -0.93331699887989       -1.32550122662094        0.03148066836524
C           -1.40519265720347       -2.70153999181893        0.03489627229312
H            3.74494811238701        1.19861636828763        1.02519112838499
H            4.00892063101533        1.01139463814002       -0.72215424486592
H            2.70411394328324        2.07494102641516       -0.11991924766363
H            3.59068369035311       -1.67345131217110       -0.07300704093787
H           -1.85140115132287        2.93655970639517        0.56586313801414
H           -2.54931841344544        3.18460322402200       -1.06292669630917
H           -3.21981650262376        1.82167515389403        0.07338322235811
H           -1.06559523379904       -3.23582566640231        0.92844800680877
H           -1.04049200776432       -3.23512459330334       -0.84941135428926
H           -2.49182522621581       -2.69501885161486        0.02173964152160
H            1.39577089091424       -2.97331509131006       -0.02927883946752
25
 energy: 19.759664522771 xtb: 6.6.1 (8d0f1dd)
C            3.25073300573071        1.15066117865077        0.04806444127256
N            2.30838187020017        0.08097236633060        0.00720267396965
C            2.61419764117812       -1.26195511392648        0.01074425242316
N            1.43356814934352       -1.96735627518907       -0.01344614217985
C            0.40723003555921       -1.08904882039137        0.00755101432646
C            0.91145948240965        0.20366996954972        0.02562881729000
C            0.08645876477236        1.35806478910574        0.01066353461492
O            0.46294082625252        2.53138938040186        0.09006149415538
N           -1.31910272618686        1.06579769555525       -0.13263493052323
C           -2.25362504700302        2.25073281279583       -0.13974625349213
C           -1.84055032466570       -0.21706004101122        0.00302542570744
O           -3.02438129289520       -0.46616494757312        0.08553098636317
N           -0.93427659613006       -1.32187541330195        0.03249841786377
C           -1.40720646751924       -2.69683593068610        0.03593515285264
H            3.74841009340924        1.19941305719111        1.02215131497003
H            4.00969286324211        1.01198246795231       -0.72589808932469
H            2.70509222303665        2.07569822959587       -0.12172045489318
H            3.59065189688061       -1.67953354375345       -0.07791223666516
H           -1.87089647614884        2.93359378122914        0.59547392032977
H           -2.51152560776725        3.14959810413177       -1.05191141825897
H           -3.23682664654073        1.80222662931295        0.04092725687972
H           -1.06784213344536       -3.23247420611105        0.92904535185363
H           -1.04427889445178       -3.23172972956500       -0.84869471645470
H           -2.49425734682990       -2.68805533841496        0.02353049137404
H            1.38816737550535       -2.97268249970722       -0.02903640830719
25
 energy: 18.401136063591 xtb: 6.6.1 (8d0f1dd)
C            3.25008129150642        1.15164306326298        0.04933377388555
N            2.30672856564130        0.08367994948034        0.00892532707159
C            2.61617046808658       -1.26561408668548        0.01429821360983
N            1.43156267725673       -1.96822420876895       -0.01185863364124
C            0.40811552703327       -1.08952721967506        0.00986091741809
C            0.90901895847695        0.20350705769004        0.02627836777570
C            0.08247521467821        1.35592244478474        0.00701640143144
O            0.46015786400170        2.53043131207495        0.07916183289965
N           -1.32587120375659        1.06602988057502       -0.14075518483187
C           -2.25901603127699        2.25774022624354       -0.14583331036443
C           -1.84088343504234       -0.21748440402812       -0.00078128989722
O           -3.02618592327872       -0.46937525847699        0.07769294873407
N           -0.93493208020909       -1.32233674342920        0.03342601600342
C           -1.40572048857318       -2.69721171859858        0.03639973441676
H            3.74908781589250        1.20084809293643        1.02305205909121
H            4.00899479088382        1.01357068167988       -0.72505486527017
H            2.70518595469085        2.07745952279861       -0.12027259906440
H            3.59193082599080       -1.68170565876138       -0.07968397623786
H           -1.86563173975409        2.93296959527875        0.60411634018740
H           -2.50848166160182        3.14527456590732       -1.04640106742908
H           -3.22590887823176        1.80971465999128        0.05328494244577
H           -1.06624650300140       -3.23308729857920        0.92957785286972
H           -1.04184724899611       -3.23173931971716       -0.84835730694771
H           -2.49286108029994       -2.68993078899794        0.02298737782807
H            1.38629098781917       -2.97352574481386       -0.02937997583704
25
 energy: 19.067775526333 xtb: 6.6.1 (8d0f1dd)
C            3.24931060840860        1.15138435445882        0.05080051951304
N            2.30487220084787        0.08447524408080        0.01068589659193
C            2.61692742445262       -1.26779550675371        0.01672993926775
N            1.43122319789185       -1.96897103410531       -0.01141415423268
C            0.40865831248458       -1.09166765200801        0.01154581030571
C            0.90760922417498        0.20160545211164        0.02773734996811
C            0.08033828850185        1.35365992794844        0.00504478927360
O            0.45729014042165        2.52793474507239        0.07467906257176
N           -1.33143604498883        1.06464868998313       -0.14483424435868
C           -2.26293349733500        2.26241974760869       -0.14844897127484
C           -1.84102639747589       -0.21930523674650       -0.00280348825252
O           -3.02649479766575       -0.47366500951274        0.07486704702728
N           -0.93494098231026       -1.32355762533039        0.03429235443846
C           -1.40393710067966       -2.69869099426920        0.03639769020976
H            3.74897604067201        1.20097304622957        1.02423506703832
H            4.00792772143686        1.01388588843192       -0.72397482646462
H            2.70543762209676        2.07819297940076       -0.11885094020227
H            3.59326120468047       -1.68013322276044       -0.08289157074658
H           -1.85439437156292        2.93063805120512        0.59216612199914
H           -2.50963033329373        3.15757256223896       -1.04184078825653
H           -3.23021634792638        1.82074704516481        0.07014674676152
H           -1.06376554028094       -3.23440684801686        0.92947745437687
H           -1.03887783917520       -3.23213167138246       -0.84854260456331
H           -2.49084453959148       -2.69414027413633        0.02248522617481
H            1.38888047415224       -2.97464405674115       -0.03065559101877
25
 energy: 17.865960857764 xtb: 6.6.1 (8d0f1dd)
C            3.24887666693940        1.15089509459668        0.05144803807969
N            2.30357993484803        0.08448206799516        0.01192061100373
C            2.61626526465388       -1.26765549305687        0.02185381173491
N            1.43087487581969       -1.96869495490928       -0.01096452073763
C            0.40801282599824       -1.09205534758765        0.01120462335094
C            0.90752936019393        0.20084089309745        0.02752626564963
C            0.07969979612769        1.35385131270017        0.00200398554590
O            0.45629952570300        2.52741270273175        0.07233439659578
N           -1.33161578926254        1.06412550278563       -0.14879110446131
C           -2.26467330271102        2.26562833965584       -0.15311596234325
C           -1.84105332442038       -0.21898687451540       -0.00531584213838
O           -3.02654270019455       -0.47299679954747        0.07277686386108
N           -0.93526696565357       -1.32312889846389        0.03351734643064
C           -1.40394810203574       -2.69849106223406        0.03636724052539
H            3.74852845545455        1.20056438681834        1.02475482968634
H            4.00719885128468        1.01280949768634       -0.72343446290047
H            2.70587988876848        2.07827050458255       -0.11868734861619
H            3.59284819585843       -1.67738521128496       -0.08764844418123
H           -1.85416478087806        2.92491651264430        0.59263049993140
H           -2.50076858712314        3.15338081109880       -1.03034750416619
H           -3.23360285111686        1.82666755394355        0.07317474312997
H           -1.06308494870973       -3.23341398931310        0.92961165570140
H           -1.03856263839107       -3.23209142279133       -0.84826988906641
H           -2.49069728345894       -2.69527410458790        0.02273812127734
H            1.39060230024191       -2.97464241987271       -0.03025405774582
25
 energy: 18.128312493814 xtb: 6.6.1 (8d0f1dd)
C            3.24842715585009        1.15042799790801        0.05150416214828
N            2.30294805404053        0.08363327147061        0.01230777712101
C            2.61494851492796       -1.26603456378945        0.02616801034660
N            1.43144675294476       -1.96824138137480       -0.01095880504859
C            0.40698975558300       -1.09251022750640        0.00949471189774
C            0.90780660486638        0.20035488453269        0.02660190092465
C            0.07995803284155        1.35429737867595       -0.00033148486130
O            0.45525322345594        2.52696825630009        0.07468378932585
N           -1.33061352028046        1.06247256841056       -0.15300811583879
C           -2.26457893063093        2.26421395788573       -0.15713913648526
C           -1.84187147524946       -0.21982330118713       -0.00705888459327
O           -3.02648954905955       -0.47333020835839        0.07416780846237
N           -0.93537146123555       -1.32334665771452        0.03232040362156
C           -1.40408206015309       -2.69914327094198        0.03652999754481
H            3.74736176909304        1.20029209962951        1.02494185881782
H            4.00684304829607        1.01142458135445       -0.72298482340333
H            2.70584770983935        2.07784255501145       -0.11939254627529
H            3.59194829947434       -1.67384743170990       -0.09074266141445
H           -1.85285344924306        2.92027089100321        0.59308438794356
H           -2.49755896623468        3.16127461301758       -1.02749359833593
H           -3.23552532126197        1.82859300300317        0.07711958041253
H           -1.06274705288353       -3.23288596868674        0.93018401323897
H           -1.03852470869417       -3.23317570341981       -0.84764347828948
H           -2.49067602580732       -2.69628372861113        0.02332149977649
H            1.39332826745710       -2.97441501273077       -0.02864247088934
25
 energy: 17.637174645377 xtb: 6.6.1 (8d0f1dd)
C            3.24851273347535        1.15058938853843        0.05124157305995
N            2.30334643247740        0.08343928879350        0.01195374243313
C            2.61461193984002       -1.26527115658653        0.02857015052925
N            1.43133514302749       -1.96790241186547       -0.01126218656417
C            0.40658718946093       -1.09174356053445        0.00819725152204
C            0.90801148223322        0.20107542162241        0.02586346847991
C            0.08019317464696        1.35496382063141        0.00009655024749
O            0.45542010216288        2.52762490724706        0.07683203007326
N           -1.32933085567067        1.06247910681985       -0.15364009677381
C           -2.26345766345219        2.26314886930002       -0.15844542150202
C           -1.84230975308047       -0.21934566377169       -0.00669652876192
O           -3.02666672216568       -0.47229529773823        0.07564644632762
N           -0.93547541798462       -1.32294096585543        0.03166322067470
C           -1.40451665206626       -2.69878063492426        0.03635265541256
H            3.74728497126103        1.20039506638565        1.02474607801587
H            4.00708434231752        1.01135262808197       -0.72308297098190
H            2.70567880594282        2.07769572063901       -0.11968584304292
H            3.59106642192192       -1.67378645320338       -0.09235008688646
H           -1.85513978497471        2.91915334176910        0.59434172207578
H           -2.49434149432223        3.15682442532154       -1.02670256487439
H           -3.23460378019063        1.82700030804388        0.07541668072093
H           -1.06327090230187       -3.23243429171489        0.93006685797830
H           -1.03927440091738       -3.23313361743667       -0.84773592415408
H           -2.49118752223380       -2.69511546925694        0.02336778317206
H            1.39265687852925       -2.97396416813395       -0.02772069103393
25
 energy: 17.537217280117 xtb: 6.6.1 (8d0f1dd)
C            3.24856002433490        1.15092668789170        0.05110258604849
N            2.30400020222823        0.08324851218385        0.01142088172161
C            2.61470264344568       -1.26490922032552        0.03228484529366
N            1.43129415631310       -1.96777099029618       -0.01165555464035
C            0.40655061296587       -1.09109871098169        0.00669719148246
C            0.90804220078935        0.20181446886620        0.02483436266909
C            0.08019079427942        1.35516711024922        0.00088075227368
O            0.45513372011033        2.52798405148833        0.07937810271967
N           -1.32885833291867        1.06240146839050       -0.15452171961016
C           -2.26213886385944        2.26163400514870       -0.15930716743882
C           -1.84279121321426       -0.21914884586740       -0.00602227763924
O           -3.02673722849777       -0.47209244108914        0.07821179748666
N           -0.93532974619273       -1.32287431178926        0.03103944073996
C           -1.40459444881383       -2.69870719486664        0.03611662431951
H            3.74729160603265        1.20078386194596        1.02467026310620
H            4.00740965180503        1.01184666980219       -0.72305974198956
H            2.70525648541905        2.07762411516573       -0.11973893458322
H            3.59015089303825       -1.67454170332830       -0.09502411456548
H           -1.85586210508477        2.91911005023762        0.59408089198185
H           -2.49349697240596        3.15531144614594       -1.02851239032893
H           -3.23352552980778        1.82594798597619        0.07560785709123
H           -1.06366078117265       -3.23241286958559        0.92990452415937
H           -1.03955170123210       -3.23329204246140       -0.84790011101143
H           -2.49139273490871       -2.69423836935794        0.02313199043718
H            1.39157133528315       -2.97368513137114       -0.02658620357619
25
 energy: 17.480153111658 xtb: 6.6.1 (8d0f1dd)
C            3.24845952267406        1.15108635333947        0.05133516303759
N            2.30415513577002        0.08325365410404        0.01137790719983
C            2.61511490473652       -1.26524761548711        0.03650694713583
N            1.43124410870258       -1.96786995879675       -0.01155939395454
C            0.40681683974519       -1.09105894481013        0.00608799095535
C            0.90793017185092        0.20187052744175        0.02413381372171
C            0.07989082881972        1.35490846211310        0.00074002975522
O            0.45466762906365        2.52778252563179        0.07943958054698
N           -1.32939350068363        1.06252070723016       -0.15529445343300
C           -2.26190369611315        2.26170841770285       -0.15947757065418
C           -1.84277184997438       -0.21903265016035       -0.00597592514525
O           -3.02654887061735       -0.47232879913703        0.07910304234543
N           -0.93509949196729       -1.32296317314744        0.03061638557503
C           -1.40436289294814       -2.69870825179589        0.03592080318901
H            3.74733169436357        1.20101437983486        1.02485757860725
H            4.00741698294565        1.01233802155255       -0.72285970317614
H            2.70501096836473        2.07771039029702       -0.11943051034348
H            3.58963451111229       -1.67509344315139       -0.09867156661466
H           -1.85519039024105        2.91923805764279        0.59352272538491
H           -2.49360588165653        3.15484204270822       -1.02883943165633
H           -3.23342176738068        1.82687858374975        0.07673636104166
H           -1.06361677974448       -3.23238755964050        0.92981747109329
H           -1.03926753712439       -3.23340231158766       -0.84799933826689
H           -2.49119247163847       -2.69427793990022        0.02283519608174
H            1.39091649987693       -2.97375287356192       -0.02588920627913
25
 energy: 17.413383154970 xtb: 6.6.1 (8d0f1dd)
C            3.24811628503315        1.15117504404244        0.05202830274188
N            2.30413741748421        0.08312210303621        0.01160773571312
C            2.61605965089084       -1.26580819853407        0.05049410994866
N            1.43137040818496       -1.96802366036789       -0.01080842711063
C            0.40730702967030       -1.09127320249694        0.00434924808449
C            0.90791796704140        0.20156166790206        0.02217862776298
C            0.07948836865949        1.35444381695447       -0.00051174622767
O            0.45385221908787        2.52715943310072        0.07896852022226
N           -1.33026367209813        1.06279475172244       -0.15700089548960
C           -2.26153270083207        2.26195223083079       -0.15921758642144
C           -1.84253670090501       -0.21881436912715       -0.00634334055839
O           -3.02596330629616       -0.47275470963958        0.08065593117243
N           -0.93454243034763       -1.32311895378112        0.02898541103193
C           -1.40393040595120       -2.69868797437227        0.03543674441862
H            3.74720659465262        1.20119788245554        1.02539330485824
H            4.00722323320535        1.01284776186195       -0.72226807250494
H            2.70465208974311        2.07779004680939       -0.11882871294740
H            3.58779121294345       -1.67491153264582       -0.11099772137933
H           -1.85379163670299        2.91902657215316        0.59314622120298
H           -2.49412228242632        3.15510750102560       -1.02903928025466
H           -3.23346460700037        1.82855425678823        0.07836092018395
H           -1.06335662719655       -3.23189166662188        0.92975291239198
H           -1.03874574968763       -3.23391710550818       -0.84807441629817
H           -2.49075072880269       -2.69458954557589        0.02235588933155
H            1.39009303958631       -2.97391354784026       -0.02358978372561
25
 energy: 17.308700571107 xtb: 6.6.1 (8d0f1dd)
C            3.24802309137033        1.15104478730448        0.05231285014183
N            2.30388003351276        0.08311642194902        0.01192961489825
C            2.61663477121933       -1.26610047708223        0.05901196760093
N            1.43136333270756       -1.96808467032558       -0.01018565858391
C            0.40740321817390       -1.09142261621082        0.00360209912736
C            0.90814654514776        0.20123515493352        0.02158659036154
C            0.07951629670695        1.35443350517735       -0.00104567962688
O            0.45395649492659        2.52688221033915        0.07800459773989
N           -1.33019449894042        1.06297951349695       -0.15683954537390
C           -2.26171743513716        2.26233221974871       -0.15875095109388
C           -1.84225065790958       -0.21875732048428       -0.00650672686841
O           -3.02574846594911       -0.47266558939310        0.08031073016059
N           -0.93434704353941       -1.32299714620654        0.02808179223789
C           -1.40385939914437       -2.69855124103485        0.03522193144981
H            3.74724079871665        1.20099736543503        1.02554364558876
H            4.00703812555186        1.01250911432317       -0.72209677947630
H            2.70485418418070        2.07781689919526       -0.11870208279924
H            3.58634332961613       -1.67368728453627       -0.11875106357458
H           -1.85384159483892        2.91898601867160        0.59380102976274
H           -2.49415773768002        3.15460401720447       -1.02873636455515
H           -3.23351723000652        1.82838824692676        0.07770380408315
H           -1.06313908816552       -3.23147780588289        0.92965748187029
H           -1.03877900286937       -3.23403038663385       -0.84814766710475
H           -2.49065106503431       -2.69454668682750        0.02234885605562
H            1.39001766532049       -2.97397564791563       -0.02232057587437
25
 energy: 17.348970298425 xtb: 6.6.1 (8d0f1dd)
C            3.24801981996931        1.15075117607293        0.05248059968987
N            2.30349038887071        0.08304995515969        0.01247652959297
C            2.61691331704167       -1.26618464620951        0.06376204922242
N            1.43129927676720       -1.96809506835254       -0.00968887736473
C            0.40724805985881       -1.09153443003113        0.00347723835491
C            0.90854083872059        0.20087187778308        0.02187790405567
C            0.07975736364948        1.35464038823604       -0.00137918135795
O            0.45441266236778        2.52682007987612        0.07735624831528
N           -1.32950282313694        1.06284671822462       -0.15593628972418
C           -2.26212679825534        2.26246960917857       -0.15836852279816
C           -1.84202299857610       -0.21907285074333       -0.00700035381935
O           -3.02581369900225       -0.47252816747770        0.07911196274793
N           -0.93431526845391       -1.32283203207952        0.02771812871980
C           -1.40394121523366       -2.69852846005004        0.03526949659561
H            3.74724460205045        1.20069856448212        1.02562159971573
H            4.00685285619210        1.01160441844913       -0.72197548618023
H            2.70529332210205        2.07771466914709       -0.11888012105876
H            3.58540356794423       -1.67186219243690       -0.12386611196211
H           -1.85434287917732        2.91925806280630        0.59397289229220
H           -2.49460147439398        3.15528632839572       -1.02842584981639
H           -3.23358982376436        1.82742796479664        0.07690379067301
H           -1.06293571846017       -3.23119620650994        0.92969504973193
H           -1.03900780618770       -3.23407094548358       -0.84808428055256
H           -2.49069968474717       -2.69449508557917        0.02258183181598
H            1.39063878179084       -2.97401112548276       -0.02166635074167
