25
 energy: 0.879172393192 xtb: 6.6.1 (8d0f1dd)
C            3.35059172972957        1.12704221598188        0.10086471868617
N            2.33153292201927        0.12151069811311        0.00391555203800
C            2.60210359023404       -1.25474099871084        0.00772303761147
N            1.38979309435919       -1.91249199538327       -0.04480408247278
C            0.38694629166527       -1.01009985604374       -0.01570240978731
C            0.90502811191997        0.27787845721723        0.03154549205155
C           -0.00453739573040        1.38097936580956        0.05832006997549
O            0.31572192621102        2.57169385672384        0.09863373034491
N           -1.45149916212889        1.06243466169932       -0.03139747981379
C           -2.37551208683523        2.20964253573059       -0.08296145949732
C           -1.96009093790978       -0.19844846583367       -0.00158833839197
O           -3.12999157325151       -0.48293483598944       -0.01005126534349
N           -0.96677408905581       -1.24591705119644        0.00660659415386
C           -1.40388140863608       -2.63080384270273       -0.04772288211975
H            3.75369314084664        1.23452203200924        1.12744001584845
H            4.19674618621469        0.86922571382965       -0.55324562055883
H            2.94339980953679        2.07709256897010       -0.22860719516811
H            3.56871578421302       -1.71961021883528       -0.01071477520475
H           -1.78155031270789        3.12209729876092       -0.04824566719541
H           -2.96771709770489        2.23771235324871       -0.99748305394733
H           -3.05625338561940        2.21268387650069        0.76670431866394
H           -1.01347189248385       -3.20765786439053        0.79628212697722
H           -1.09884335839206       -3.11865525455025       -0.98142164904297
H           -2.48855566707357       -2.61941298434585        0.01764231553970
H            1.30539261503378       -2.91721676849627       -0.08093688611768
