25
 energy: 59.444460297311 xtb: 6.6.1 (8d0f1dd)
C            3.78762646576874        0.88546007216000        0.10191857845241
N            2.81713669724092       -0.15861991204788        0.01857560350731
C            3.07160717104559       -1.48517609320171       -0.05589849612684
N            1.89163258298544       -2.16594229559259       -0.07151233587236
C            0.80634156742568       -1.29550920497824        0.03371084004263
C            1.42644360103897        0.03379317844111        0.11673089103307
C            0.79939381840132        1.18844579307166        0.21132475444502
O            0.15353267446545        2.17523309330320        0.31097562814826
N           -3.20401888931502        1.54079979864041       -0.31655299452321
C           -3.32743266674611        2.93839308954300       -0.18832500233395
C           -3.45565932470639        0.43218430536521        0.00776904720327
O           -3.60165140050634       -0.70733288223825        0.17554974440022
N           -0.44146904779131       -1.50794245492356        0.04983052558849
C           -1.04963984775499       -2.80284843194847       -0.02795682063756
H            3.84754041011848        1.29712711928047        1.11417429229507
H            4.76541372826272        0.49653076880522       -0.17951736211375
H            3.51103693561352        1.69101115493334       -0.58233343448315
H            4.04495529519866       -1.91463019758291       -0.10630625087868
H           -2.32890990587914        3.36587320610134       -0.08470779812845
H           -3.79115125908983        3.33465786806757       -1.09478901114355
H           -3.93435453729690        3.21698716985308        0.67651358038591
H           -0.60519155157176       -3.53495324549417        0.65845584121740
H           -1.00115899627571       -3.20545418810396       -1.04550258804482
H           -2.09823040858535       -2.66216087620796        0.23237145565667
H            1.82842119292533       -3.16689804650241       -0.12746477589533
