25
 energy: 63.838523888293 xtb: 6.6.1 (8d0f1dd)
C            3.52176306716781        1.02654014816033        0.11049404973457
N            2.45135737885659        0.08044311646074        0.02057043166280
C            2.68720412341768       -1.26367865402086       -0.06485174375777
N            1.49520311461484       -1.92766507501735       -0.10478802292715
C            0.46415271726713       -1.03272455678426       -0.02089800785741
C            1.02582053915958        0.27755206218383        0.08105923630431
C            0.22464282904012        1.39246199435189        0.14015223283411
O            0.16411730060903        2.56674073815801        0.35012233130763
N           -1.85199081512877        1.13589992382319       -0.13937671770043
C           -2.64553067428361        2.36497184671188       -0.15658416168386
C           -2.31372028262830       -0.02238339195916        0.00704547749820
O           -3.24516041878756       -0.72659643976171        0.11112466133134
N           -0.84169925565195       -1.24247030978497        0.01131906750001
C           -1.26696715800912       -2.62700176654670       -0.03760157170898
H            3.74649969222072        1.32393086910706        1.13565958309655
H            4.43399911031742        0.56670998026560       -0.30182216144246
H            3.33656463109216        1.93204878274320       -0.45037736913369
H            3.62421329625158       -1.74476466910261       -0.16960480383057
H           -1.97165988982641        3.20936968362395       -0.06034387452663
H           -3.18584276320768        2.53527956955804       -1.08578745997056
H           -3.34007180872827        2.47586012886296        0.67073535725297
H           -0.75572102418998       -3.23066736482057        0.72534724507735
H           -1.05266480325063       -3.04513551585925       -1.02919125700238
H           -2.33808247465554       -2.70898695536912        0.15804265162362
H            1.44689992120011       -2.92895777455829       -0.14928764779396
