25
 energy: 65.907890561035 xtb: 6.6.1 (8d0f1dd)
C            3.73652530153105        0.87453716729559        0.11365509795246
N            2.66396088173552       -0.06748175602242        0.03622346997366
C            2.92249794745657       -1.40046031973180       -0.08241824701605
N            1.75091109654815       -2.08344826699839       -0.07288191969233
C            0.67067048804024       -1.21092229754528        0.00352576106241
C            1.27195349598986        0.12235797600261        0.13076970761547
C            0.65402657786130        1.30487876941631        0.10302944153404
O            0.25624793949089        2.37736169144699        0.41421489656480
N           -2.65762815747690        1.42371628569657       -0.22393133060192
C           -3.15911411674873        2.73706124955315       -0.17510171230694
C           -3.09265427582876        0.34336270991632        0.01259090259292
O           -3.50206486680625       -0.72627037301252        0.18827049101183
N           -0.58635561590946       -1.40378081425069        0.01207964557002
C           -1.10862686731647       -2.72871682410031       -0.03769573206065
H            3.69739385938581        1.49394454715826        1.01155775754486
H            4.61505040318241        0.26191090652407        0.25576388625553
H            3.87474487237781        1.47449756895521       -0.79205151940895
H            3.89371730251568       -1.82415403690188       -0.19158499477442
H           -2.32674453976722        3.41701544475898       -0.03957932072192
H           -3.66931513665073        2.97883640581441       -1.11305710637804
H           -3.86808603101526        2.83450670614701        0.65100235865462
H           -0.51979471501204       -3.36838124532904        0.59227030400321
H           -1.12122511896889       -3.13027237597489       -1.05379789604353
H           -2.10914741617588       -2.72547699373080        0.36368901850301
H            1.69854266080453       -3.07818873236878       -0.18921669362634
