25
 energy: 15.957050719070 xtb: 6.6.1 (8d0f1dd)
C            3.42293755262236        1.09177569727555        0.10152659537073
N            2.37213664507729        0.11429906736250       -0.01041595682362
C            2.62041698515156       -1.25547083701803       -0.00624425288647
N            1.41345462793764       -1.90628377952781       -0.07480751081789
C            0.40536476568455       -0.99914807672118       -0.02848183255059
C            0.93381329124269        0.29113000844405        0.02076497958388
C           -0.00208982851501        1.38017109016838        0.08581048125919
O            0.23442110690356        2.57248373092655        0.17599680203375
N           -1.56617639960461        1.08522580419821       -0.06027916096493
C           -2.46803963616294        2.26640475332169       -0.11045135650706
C           -2.04661153180957       -0.17346420830650        0.00377966966823
O           -3.18060868770488       -0.55818073454679        0.03451529578202
N           -0.95278357755152       -1.21512993715470        0.01589606402274
C           -1.35733168334787       -2.61989455539466       -0.04239660268560
H            3.75794715204942        1.25810286822618        1.14359015387676
H            4.30932578266422        0.75395402287481       -0.46630954880563
H            3.10788575876542        2.04158461835796       -0.32539901007059
H            3.56905206018683       -1.75878686144471       -0.07377476557082
H           -1.85495030113369        3.16307946859105       -0.05266567662549
H           -3.04662887662259        2.34518124244013       -1.03306310550143
H           -3.17040435478444        2.30366247196687        0.72369604231436
H           -0.91288931545343       -3.20884151080869        0.76977542416737
H           -1.07459645159203       -3.08029634645368       -0.99998853967633
H           -2.43880639462334       -2.65865346833252        0.07583920781430
H            1.35328427617967       -2.91510090738226       -0.11016527691624
