  25
        -42.15180603
 C          3.2005440967        0.9566674674        0.0402401579
 N          3.3636869855       -0.3940487319        0.0110620031
 C          2.6268003800       -1.4006578564       -0.0115054852
 N          1.2451917477       -1.5631656993       -0.0198398441
 C          0.1441080408       -0.7571116109       -0.0052118005
 C         -0.0857141100        0.6402475635       -0.0035757418
 C          0.7284921940        1.7501130754       -0.0084842490
 O          0.6862772231        2.9307487016       -0.0429605660
 N         -1.4810757069        0.8209950814        0.0041074190
 C         -2.2206945751        2.0566664706        0.0065257961
 C         -2.1060125954       -0.3915138059        0.0080691642
 O         -3.2778965383       -0.6311062025        0.0171202426
 N         -1.0719153397       -1.3531593264        0.0015235156
 C         -1.3781917508       -2.7603248979        0.0028185828
 H          3.6225034996        1.3851541574        0.9528852092
 H          3.6624427344        1.4276273226       -0.8319205293
 H          2.0641047298        1.2933535457        0.0228735577
 H          3.1331868789       -2.3569832906       -0.0287866225
 H         -1.5478345449        2.9091699988        0.0386064799
 H         -2.8368274353        2.1144704415       -0.8922984423
 H         -2.8804955710        2.0798595028        0.8749343108
 H         -0.9855005152       -3.2534174107        0.8938348809
 H         -1.0086591929       -3.2500186727       -0.9000069959
 H         -2.4666063689       -2.8378537872        0.0161988799
 H          0.9763426959       -2.5422643587       -0.0365122193
