  25
        -42.10526352
 C          3.2267914831        1.1170996319        0.0067104520
 N          2.2696269119        0.0436953924       -0.0006369237
 C          2.5324046177       -1.2599959731        0.0002617796
 N          1.3748894456       -1.9617725417        0.0012428480
 C          0.3419788241       -1.0727060273        0.0014602078
 C          0.8993477919        0.2000867465        0.0024114671
 C          0.1018999434        1.3883855195       -0.0061126625
 O          0.4811697781        2.5377307897       -0.0221015930
 N         -1.3023046749        1.0743162337        0.0025464577
 C         -2.1583736399        2.1051641762        0.0112782709
 C         -1.8719183587       -0.2312511531       -0.0004451764
 O         -3.0606135818       -0.3918196656        0.0028001818
 N         -0.9856664490       -1.3059571313       -0.0050493565
 C         -1.5205177876       -2.6558317732       -0.0094584867
 H          3.7188692243        1.1805524212        0.9783342925
 H          3.9830889380        0.9537166124       -0.7600104293
 H          2.7044313069        2.0537108243       -0.1831122899
 H          3.5109416238       -1.6967132361       -0.0005147991
 H         -1.6352452621        5.1146030926        0.2162402662
 H         -1.7623672431        3.1112431011        0.0393804710
 H         -3.2110765113        1.8996897423        0.0010724305
 H         -1.2214959635       -3.1864089765        0.8947259999
 H         -1.1813120696       -3.1949589816       -0.8939592452
 H         -2.6066149025       -2.5816485357       -0.0336272961
 H          1.3049877100       -2.9690837040        0.0014518328
