25
 energy: 102.901604528810 xtb: 6.6.1 (8d0f1dd)
C            3.32350114365477        1.16456768524139        0.08674876110633
N            2.37869274851378        0.07456871936460        0.05933334508642
C            2.71752799282174       -1.20720580341445        0.04590808280103
N            1.60324821869124       -1.96512396898049        0.04976347766779
C            0.46062548529082       -1.11605116225075        0.06733687023058
C            1.02054717453805        0.19462437812871        0.07025704737332
C            0.26588697055590        1.45922001012786        0.05855522340236
O            0.82833290838220        2.56441959732582       -0.05389418556305
N           -1.01563489360214        1.22317038800113        0.26007973877964
C           -2.01643408607353        2.21685567483796        0.17523653336024
C           -4.24211419295613        0.37400499766634       -1.09547025543390
O           -4.03584922828831       -0.73646802390650       -1.00154724535730
N           -0.77558712972699       -1.42658625829884        0.07812224315267
C           -1.27982210380568       -2.76228040627994        0.06662060473530
H            3.82065284740573        1.21032591348764        1.05743523073743
H            4.07644728093109        1.03109760404416       -0.69128464899230
H            2.77141998893121        2.09592303672205       -0.07552808619756
H            3.72201581904819       -1.58022836081758        0.02596368174484
H           -1.71993285421425        3.11696301175595       -0.37077542979742
H           -2.88546350132585        1.76181635671719       -0.31828238498370
H           -2.30164611048948        2.50790216004540        1.18575210032688
H           -0.92576821671111       -3.35795910359183        0.91825439377695
H           -1.01281224292894       -3.28777897884308       -0.85965805235815
H           -2.37008528436560       -2.69494470809818        0.11693735763437
H            1.57383948294528       -2.96966069239289        0.03122104611848
