25
 energy: 58.672368367686 xtb: 6.6.1 (8d0f1dd)
C            3.27312856746705        1.15165228815457        0.11749494699027
N            2.28360467217441        0.10173384224261        0.08680165973267
C            2.59812455020975       -1.21788785700451        0.11426713508168
N            1.44588822454818       -1.95717877420976        0.03104538718553
C            0.34650931238271       -1.12467879828113       -0.01078280528659
C            0.88803736762672        0.17631815928145        0.03472921911736
C            0.09684245999385        1.28948424307893       -0.05321160632062
O            0.43759874285455        2.46833285488417       -0.05663052846618
N           -1.56314336916415        1.02375245982240       -0.16902211577889
C           -2.22422009142463        2.27280841030308        0.11312979257025
C           -2.36253487345567        0.10203345757107       -0.56463486501764
O           -3.37537475984510       -0.39965586029916       -0.86295902590197
N           -0.96727591018652       -1.33341553123882       -0.07158387476327
C           -1.38065802452130       -2.70317306763983       -0.00398664021514
H            3.79706140591027        1.18881164944330        1.08095546500756
H            4.03604410093953        0.98956194441731       -0.65275571179865
H            2.77801253082425        2.10768972905228       -0.05809719135733
H            3.59760703214083       -1.58844579772875        0.07404225765028
H           -1.69836486891200        3.10481694594241       -0.36401328422454
H           -3.19196707095171        2.09083054218533       -0.32496290669908
H           -2.39383945041854        2.43482352872207        1.18480768181765
H           -0.96190889598696       -3.19216087415565        0.88579806777782
H           -1.05428240646857       -3.25169521895309       -0.89400028400423
H           -2.46860183673303       -2.73738452565088        0.04855850947987
H            1.47367668051549       -2.95916648379049        0.05582540244434
