25
 energy: 118.485845209393 xtb: 6.6.1 (8d0f1dd)
C            3.28484701158719        1.14504326506964        0.12591916481803
N            2.31338768195795        0.08312144637428        0.07068920111456
C            2.65636035522759       -1.19815734324360        0.08466815272539
N            1.55658810021088       -1.98207923382777        0.06161927064815
C            0.39531707796185       -1.15521570382770        0.04318708408171
C            0.92733433181363        0.16332716338233        0.06133647884948
C            0.07831213205108        1.31336969144388       -0.01990072809186
O            0.53815004056944        2.45338858370037       -0.05254936753078
N           -1.48178696548682        1.03507203452626       -0.01739648330586
C           -2.16630289282579        2.30846391668235        0.18384222111212
C           -2.85336100176407        0.51563203533134       -0.92330359219989
O           -3.62000836927221       -0.36544462005042       -0.97949120236843
N           -0.84020439530849       -1.41830982654840        0.00306377141088
C           -1.31094231967783       -2.76132744618231        0.03064713489505
H            3.78370648689818        1.15349443889742        1.09797582435908
H            4.04800907251087        0.99109953141019       -0.64133590332822
H            2.79462375344255        2.10131288347397       -0.03748529272568
H            3.66374142702759       -1.57446844826573        0.07080427511212
H           -1.82350632254118        3.09221085507262       -0.49589364656975
H           -3.22970612659985        2.08455295051400        0.01961423757761
H           -2.09059395556391        2.59239772021189        1.21873410565987
H           -0.88431458743845       -3.27252128203431        0.89468920772878
H           -1.02619087214248       -3.29465174177111       -0.87912143592995
H           -2.39811080973867       -2.77913804969581        0.12152675189957
H            1.56174238505559       -2.98352032978363        0.05378387061847
