25
 energy: 23.359521684234 xtb: 6.6.1 (8d0f1dd)
C            3.26880135591482        1.16315030831600        0.10569136005739
N            2.28302729537074        0.11005966991695        0.07386168420833
C            2.58501772135106       -1.23105310203243        0.10164231537618
N            1.40758983007771       -1.94249479755615        0.02514512087523
C            0.33302888390315       -1.08791619459848       -0.03017710275333
C            0.88063735849818        0.19256438140234        0.00876774134939
C            0.04274734871484        1.30126928752969       -0.08449742728758
O            0.41978077037686        2.47622110267468       -0.04705891693030
N           -1.46479108604517        1.02876013858873       -0.19609599113393
C           -2.22542280800784        2.22784171488517        0.05860144413299
C           -2.14022082519967       -0.10026526470939       -0.46762474647192
O           -3.27260369308134       -0.40940312353573       -0.66439659910025
N           -1.03264825902858       -1.28464892684069       -0.11525319114909
C           -1.41928325042134       -2.67403083306987       -0.02606465049597
H            3.77845162992170        1.20656434045131        1.07588498905007
H            4.04060012880945        1.00871785788636       -0.65973436694320
H            2.75709725571196        2.10885478879004       -0.07009910758336
H            3.58505651724020       -1.61748246801012        0.07141160465531
H           -1.65608203792276        3.10028440667887       -0.29055244165561
H           -3.12851422467891        2.05246340598805       -0.50494880136338
H           -2.52398244210217        2.33839358967308        1.11279487046718
H           -1.01293596004077       -3.17005184307176        0.86941313646238
H           -1.07854326817113       -3.22633586854940       -0.90877623377704
H           -2.50298368766861       -2.70020706413970        0.01490026161609
H            1.42895778688831       -2.94820094663286        0.05285231480582
