25
 energy: 13.353747085431 xtb: 6.6.1 (8d0f1dd)
C            3.26560128090611        1.16818098810552        0.09955780835639
N            2.28707355855923        0.11126222402572        0.06399650174945
C            2.58755412971157       -1.23756673880850        0.09138755515494
N            1.39996830607671       -1.93975720359502        0.02457963123943
C            0.33356166892091       -1.07854856343461       -0.02989994453594
C            0.88291433699395        0.19511398345610        0.00376930637943
C            0.04447644704099        1.31332905999897       -0.08067468836364
O            0.43343120556394        2.48361496018602       -0.04806777643902
N           -1.42827284266907        1.02334553502031       -0.16719100026824
C           -2.22374557476568        2.20942523368384        0.04030176851158
C           -2.07070016442687       -0.15071290929081       -0.42596818967265
O           -3.23109617321863       -0.40794062524001       -0.57433091470678
N           -1.04242697067550       -1.27551182777191       -0.12684804578042
C           -1.43455748486738       -2.66568486223021       -0.03457522932873
H            3.76959530702913        1.21348719404797        1.07214558773146
H            4.04150804094278        1.02081921121513       -0.66312999165510
H            2.74749352938485        2.10949430981695       -0.07561715488448
H            3.58647643426682       -1.62973950943287        0.06345326153973
H           -1.63788938075700        3.09251811975593       -0.25097045302296
H           -3.08671824297510        2.04649229691725       -0.58707303136151
H           -2.59039584576437        2.30017811796313        1.07220154664143
H           -1.03891085907572       -3.16660574073083        0.86236277178656
H           -1.09152108566599       -3.21774691998110       -0.91564775137553
H           -2.51795924952430       -2.67916976217173        0.00002722872787
H            1.41345927322865       -2.94626153657529        0.04698632670719
