25
 energy: 106.741450660868 xtb: 6.6.1 (8d0f1dd)
C            3.31318160758146        1.15672240823355        0.09831058555014
N            2.35903833476918        0.07237452798338        0.07254731431740
C            2.70189858771968       -1.20219115821749        0.05895654897527
N            1.60481231697688       -1.97171064406188        0.06507467353062
C            0.45207183459066       -1.14028285540007        0.07778036898223
C            0.99041543499861        0.18631589409571        0.08806749043013
C            0.20716222503051        1.41500271476699        0.05678742067833
O            0.73244130569479        2.53294601425904       -0.07236148425712
N           -1.11271363592958        1.14109380036998        0.17665873870553
C           -2.03206882477317        2.22533404856634        0.17620579650873
C           -3.83531490640588        0.47557757649075       -1.29714824243035
O           -4.15513482712229       -0.56243583297931       -0.98191218689177
N           -0.77311118948358       -1.47273302314141        0.09593023086584
C           -1.27788423628671       -2.80407731252070        0.05047849053784
H            3.80720721237385        1.20669427237533        1.07260768743612
H            4.07157889684207        1.02617955570088       -0.67603340255805
H            2.77931148504327        2.09416966499363       -0.06864598768605
H            3.72044308558469       -1.54549460492627        0.06267873158850
H           -1.68524733536206        3.11629335821516       -0.38359457072618
H           -2.99982253306771        1.94472129600420       -0.29411638969944
H           -2.17520857895397        2.50625616659875        1.23136515917465
H           -0.94381900518393       -3.39641080071612        0.90773584081889
H           -1.00786015826908       -3.34380375158222       -0.86524719038453
H           -2.35947785645338       -2.70754150419276        0.08952161870299
H            1.61906765166753       -2.97718377404867        0.05367026023809
