25
 energy: 103.762422385937 xtb: 6.6.1 (8d0f1dd)
C            3.31969545441342        1.16518660797277        0.08682788573846
N            2.36638233391874        0.08283920154808        0.07023298674050
C            2.70818450664873       -1.19515647502332        0.05474227024238
N            1.60563367358501       -1.96683045450468        0.05081757902977
C            0.45907593531153       -1.12029862253721        0.07064405130916
C            1.00858509436787        0.19780289771806        0.08270738144681
C            0.24527895895788        1.44539644156940        0.06346008516864
O            0.78625224486369        2.55587260829040       -0.07231994264047
N           -1.04783366015965        1.18019087299524        0.23544635379928
C           -2.01545921827210        2.21310663050221        0.20436232252946
C           -4.10558169241863        0.41265629043292       -1.24660021815497
O           -4.22186848839266       -0.68201817682018       -0.98103588710796
N           -0.76275579995586       -1.44778934687361        0.09652428782380
C           -1.26837714136920       -2.78510939616957        0.06391374246127
H            3.81554617902530        1.20993375271358        1.05755242090930
H            4.07132396973204        1.01646623644234       -0.69014994777584
H            2.78075460354734        2.09608078373640       -0.08524420247822
H            3.71624264857806       -1.56036885112592        0.04986293801194
H           -1.65639035417037        3.11588794834984       -0.31170234663918
H           -2.90432487538902        1.81304252020095       -0.32560164333179
H           -2.31687550911811        2.48767882807541        1.23740865084432
H           -0.93431748501834       -3.39195136201269        0.91398075248860
H           -1.00904688363286       -3.31552686216773       -0.85947555622877
H           -2.35447519500590       -2.71663107501526        0.11805408366012
H            1.60143595536086       -2.97325727475923        0.04336273675660
