25
 energy: -42.159347900431 gnorm: 0.004201099151 xtb: 6.6.1 (8d0f1dd)
C            2.93887104831443        1.09188111096306       -0.27923388763992
N            2.12317443794996       -0.06864964656525       -0.03888660973630
C            2.57268352913132       -1.30439348379867        0.11306274877730
N            1.54078159004288       -2.13248395269198        0.31325387285950
C            0.36617659119475       -1.40365545392210        0.26085100767706
C            0.74809003400377       -0.08464677349729        0.01092645230613
C           -0.06188412356472        1.15808583425219        0.12634310124699
O            0.39446821165891        2.12783617976254        0.69125724465837
N           -1.34448316758930        1.10605918384749       -0.35651466579818
C           -2.28415569329181        2.12969049110267        0.06590540302097
C           -1.79256883314167        0.22521251389679       -1.32278104582912
O           -2.92719652002687        0.18287313792629       -1.68926073545067
N           -0.88056851775150       -1.89248477591009        0.32947881834590
C           -1.29281403988479       -2.88909850693196        0.99753005797392
H            3.96322862699045        0.89083943649992        0.02640517436069
H            2.92493496070245        1.34933726349211       -1.34042500078351
H            2.54154598315146        1.93612832380326        0.28636003735546
H            3.60432331393535       -1.59794322933542        0.07412013935852
H           -1.82574876342045        2.73384470780726        0.84473932223613
H           -2.55619371146743        2.76329444339256       -0.77870845519533
H           -3.18968697490723        1.64918620295784        0.43648158561358
H           -0.69938619817547       -3.44534634276586        1.72229088188901
H           -0.99043441582672       -0.38588519866723       -1.75802159285432
H           -2.31925604521420       -3.18894344940548        0.85265730130777
H            1.60653019128478       -3.13249947461379        0.44334046220013
