72
 energy: 77.232058499219 xtb: 6.6.1 (8d0f1dd)
N           -1.56409653732296        2.90921360575226        2.22433950917039
C           -1.66487770007858        2.20023180205711        1.19407800696586
C           -2.87587220301255        2.10349084199126        0.30087853534176
C           -3.42156672283167        0.68841450619265        0.37075538077251
C           -4.40947142587911        0.27348214950917       -0.52375491822941
C           -4.93800433518441       -1.00178575957991       -0.47724162785967
O           -5.90235397200225       -1.47948326977247       -1.31262251157251
C           -6.48440806360909       -0.59809451582541       -2.24041457074071
C           -4.47767046357468       -1.91522915088093        0.49672238125646
O           -5.05502021288026       -3.14868270329669        0.46471285642530
C           -4.73110987552462       -4.06798301201188        1.47967131734742
C           -3.51028221665219       -1.49789752102491        1.38967459806445
C           -2.98859245940463       -0.21131142805084        1.32463055244173
C           -2.39953266548248        2.41638911342000       -1.14936670922929
C           -1.54458068655047        1.33216223118846       -1.83544501726614
C           -0.17995491792690        1.21813792534523       -1.23705757661422
N            0.47376611497860        0.01566529562272       -1.11954153527159
C            1.92269634953335       -0.02520609163174       -0.84444199271200
C            2.80473003375105       -0.49759838756810       -2.00239814128195
C            4.70874380969895       -0.76842445958468       -0.73034709687166
C            5.35349895085987        0.43940309307257       -0.86243657122903
C            6.64765055508577        0.64427186511723       -0.38644800947048
C            7.34181205878133       -0.35397327683527        0.25701604390746
O            8.63732872457288       -0.27967571042875        0.69519260963520
C            9.37678772898700        0.88791654128671        0.43413836355387
C            6.67226699657769       -1.56930589949413        0.50597462114999
O            7.42093591256428       -2.46265471971795        1.21788315775252
C            6.87743508984852       -3.71439042017929        1.53499087485113
C            5.37638063111939       -1.76316304805867        0.01828456663227
C           -0.25773575172895       -1.23732400595756       -1.03026992101192
C           -4.02807558860769        3.07089770992242        0.70012217029749
C           -4.55604653289706        2.73890835784076        2.09707863815994
C           -3.60471590762528        4.53582397284305        0.65072582586436
H           -4.77500931799776        0.96580907117696       -1.26459826305036
H           -6.94789397989487        0.26676304650034       -1.75078715564850
H           -7.26161701957730       -1.17255704201407       -2.74491341152508
H           -5.74926227818236       -0.25321330797478       -2.97556066891824
H           -4.96079313143883       -3.66242496320293        2.47140587443241
H           -5.35458928948921       -4.94152005666093        1.29432932852043
H           -3.67664077632577       -4.35806093785711        1.44260727604230
H           -3.15203402398776       -2.16437837477057        2.15669726082553
H           -2.24911758426524        0.08769812145065        2.04926051268714
H           -3.27330465924906        2.59061685134599       -1.77726129865822
H           -1.82929875609629        3.34453902784272       -1.12458800149641
H           -2.07624562881384        0.38454209872105       -1.76042932693136
H           -1.46698572935835        1.57441476290046       -2.90979235596724
H           -0.81408227265053        1.61645211181330        0.77282905728962
H            0.45280682841719        2.09838503876953       -1.31409537981151
H            2.08977857377104       -0.65472499757700        0.03007533100775
H            2.18743322594426        0.99469569949454       -0.55532491305657
H            2.76366353716113        0.12865500551899       -2.94545755864720
H            2.64432319469313       -1.51877559900393       -2.29049247519480
H            4.89260762976509        1.28971582909534       -1.33569775728195
H            7.12520778736741        1.59457668030518       -0.56359647813846
H            8.92584739851397        1.76859748232959        0.90857272928016
H            9.48187676867749        1.08055540103158       -0.63988977075020
H           10.36939987604552        0.71173422023144        0.85710497458637
H            7.69147983402807       -4.24262052939443        2.03363056748172
H            6.02218274277823       -3.62407041710112        2.21607697715566
H            6.57506629897769       -4.27630285824013        0.64459646658794
H            4.89109413149949       -2.69308375159271        0.27397134668591
H           -0.56384276819751       -1.55850406592501       -2.02266312240779
H           -1.15868279679322       -1.14300751487547       -0.41145961484910
H            0.36520175473250       -2.02712473917402       -0.60438254251286
H           -4.84649241529220        2.92718694695074       -0.01921410542277
H           -3.77296254352352        2.88477488122668        2.83914691506915
H           -4.89037676505038        1.70473203325355        2.14749377952446
H           -5.39518332779592        3.39098443836160        2.33108296394453
H           -2.77614506443871        4.69983880931503        1.33095228629572
H           -3.31338044259419        4.83280361466393       -0.35173470785209
H           -4.43575283700514        5.16933237564140        0.95947672398970
H           -0.66722889360169        2.95268245725836        2.68474080173788
