72
 energy: 95.009686428410 xtb: 6.6.1 (8d0f1dd)
N           -1.59143304272687        2.95986142499550        2.20341053281750
C           -1.68842693662355        2.23083917933023        1.18500344374666
C           -2.91179585942196        2.11564180241396        0.31128095366205
C           -3.45112836537460        0.69570962590849        0.37875140215838
C           -4.43874141104455        0.27853698842437       -0.51613341869470
C           -4.96496504504706       -0.99843731631052       -0.46679104661401
O           -5.92789780420360       -1.47935706848253       -1.30185727523391
C           -6.50902813792197       -0.60491088780532       -2.23551072997691
C           -4.50211021378314       -1.90997909121405        0.50923670731159
O           -5.07605645658682       -3.14537767924894        0.47913301443598
C           -4.74981199029904       -4.05864718972410        1.49686140921020
C           -3.53511735180981       -1.49021665641394        1.40288181088057
C           -3.01681940620306       -0.20187991148642        1.33479027186761
C           -2.45235400455759        2.44481351463900       -1.14166215036544
C           -1.63158621130339        1.35786352945011       -1.86652792942833
C           -0.24094414168282        1.21750219337856       -1.34761279108856
N            0.40766825700738        0.05571296667716       -1.22900840136933
C            1.87264959825184        0.01390003134502       -1.00036524767097
C            2.59286135659848       -0.45564628989547       -2.22832479523777
C            4.83090841514675       -0.83976777677181       -0.59114254247366
C            5.43292337191235        0.37331524376476       -0.80109569953498
C            6.73020608169051        0.59567569352949       -0.34503274089601
C            7.43559290583310       -0.39023256383425        0.30470063584117
O            8.73375720286554       -0.29604768076366        0.73904034311572
C            9.45399965843173        0.87690719060170        0.46761466672813
C            6.79812232950988       -1.61539087231111        0.57355353699675
O            7.56052389962847       -2.49553464803491        1.28250936112762
C            7.02458018834327       -3.74256457030071        1.62059885671404
C            5.49977956327574       -1.82614902237688        0.12305678335001
C           -0.30597470104512       -1.20160828586052       -1.13153006916352
C           -4.06261530007710        3.07247776111294        0.73434458055653
C           -4.56906978424642        2.73244499514533        2.13706944591852
C           -3.65378544377339        4.54242030561860        0.67911073858513
H           -4.80552987757677        0.97127868803314       -1.25590620999230
H           -6.97763293044924        0.26076711529472       -1.75464796375795
H           -7.27961266283052       -1.18783115804980       -2.74082856120105
H           -5.77340237969695       -0.26008200050235       -2.97021213308903
H           -4.98179933050312       -3.65152019392888        2.48770022908025
H           -5.37183725865748       -4.93374813841995        1.31425501902461
H           -3.69465538773610       -4.34689300104418        1.46326362262166
H           -3.17391176814447       -2.15382973270735        2.17179860148005
H           -2.27883819587486        0.09998744774075        2.06051695916598
H           -3.33501266813559        2.64036755231689       -1.75027924692927
H           -1.87276783070218        3.36775937272682       -1.11138281974951
H           -2.15797718361919        0.40950475729877       -1.78863831237061
H           -1.59175991987938        1.62316681683930       -2.94114465353019
H           -0.86276206104466        1.61818982691813        0.77575203274781
H            0.37176411267988        2.10775674147991       -1.37311250082222
H            2.04401698587216       -0.61935817918405       -0.13426212901611
H            2.16441225950491        1.02716208714817       -0.71791967567278
H            2.54068733284687        0.16410881671872       -3.14324920377620
H            2.57259057082455       -1.50307099230209       -2.46303683922741
H            4.95725726626452        1.20419721461315       -1.29479581023361
H            7.19392146578952        1.55009560317193       -0.52824355177593
H            8.99360105951727        1.75845231097346        0.93439660839971
H            9.55172672534732        1.06561465226389       -0.60924548103329
H           10.44898847699289        0.70994810851982        0.89184159217256
H            7.85686871440635       -4.24420738036453        2.11524700894116
H            6.17365387831824       -3.65943063776544        2.31121389500416
H            6.71871226533203       -4.32525673681704        0.74315213237712
H            5.01878434901383       -2.76058117114480        0.35858489799456
H           -0.64194273293018       -1.52607082872720       -2.11277685285236
H           -1.18618790972805       -1.11144979159892       -0.48634778459114
H            0.33315760218396       -1.98893270455420       -0.72597972482080
H           -4.89100068802546        2.92102555864004        0.02888455109484
H           -3.77956139024227        2.88509842271417        2.86962844790897
H           -4.89687876346633        1.69654150222013        2.19031485903278
H           -5.40972328711331        3.37668738649172        2.38372662975474
H           -2.81774670886242        4.71451273652171        1.34790066230382
H           -3.38038908680345        4.84500046895158       -0.32683248167062
H           -4.48651305216070        5.16519645898334        1.00237685531255
H           -0.68504735816912        2.98911929633343        2.64529006832917
