72
 energy: 97.509657820616 xtb: 6.6.1 (8d0f1dd)
N           -1.59213712185420        2.98703526844830        2.14269241121356
C           -1.71029284699774        2.25024676758481        1.13475461712784
C           -2.95942488947632        2.12933171062448        0.32040419176701
C           -3.49219745022288        0.70720916190777        0.38636966166955
C           -4.47838526698918        0.28728679801872       -0.50919796823353
C           -4.99912315584708       -0.99223333411783       -0.45562366121260
O           -5.95959013038862       -1.47988538416271       -1.28470173491538
C           -6.53287434343574       -0.62704760518267       -2.24212882538222
C           -4.53240424087643       -1.89863030706551        0.52477891699484
O           -5.09967868498123       -3.13225491659596        0.49943172610781
C           -4.76480976078743       -4.04835213664156        1.51143114893756
C           -3.56720528556109       -1.47396334514685        1.41839740675012
C           -3.05468747509049       -0.18422013765092        1.34744748276552
C           -2.52388701113786        2.48069433527032       -1.12546830301391
C           -1.73341683867339        1.38296659591743       -1.85778568442389
C           -0.32923139219731        1.24010153119040       -1.40846391014850
N            0.32668525068689        0.10972711588016       -1.27360056100400
C            1.81930142594041        0.07644181764258       -1.17928107868721
C            2.33036917253601       -0.40957469596104       -2.46464649294332
C            4.97294220067500       -0.91379870233737       -0.43002070390059
C            5.54033176123926        0.29353764795788       -0.73105160877556
C            6.84958488359503        0.54114088190903       -0.32273114936724
C            7.56032281329238       -0.42680199210092        0.35884168275199
O            8.85560999264288       -0.31032573200984        0.79668802280819
C            9.55445110332897        0.86968791857212        0.51869171716414
C            6.95195378128058       -1.65761714059721        0.66720949897780
O            7.73732390044669       -2.52856420264459        1.36059677094074
C            7.22907631261867       -3.78148288242673        1.71654502525521
C            5.64432742994812       -1.89093732216295        0.26610737515559
C           -0.36162585386004       -1.15631384762250       -1.25045251785496
C           -4.09258132151424        3.08086588538411        0.78672084880300
C           -4.57923068971949        2.72999532009294        2.19227969434554
C           -3.70838591554684        4.55664940308738        0.72401741239905
H           -4.84774514685860        0.97881877954419       -1.24887630559311
H           -7.01108320635964        0.24307852044147       -1.77976937363856
H           -7.29131721072058       -1.22491612714207       -2.74755735696757
H           -5.79440733579894       -0.28805587890199       -2.97744436265842
H           -5.00343775582944       -3.65833905226821        2.50655685670345
H           -5.36864058776410       -4.93251037608971        1.31513908496049
H           -3.70522842369260       -4.32264775018893        1.47231345760732
H           -3.20329754186549       -2.13517808125637        2.18803547049726
H           -2.31784348739877        0.12088539187458        2.07426332308131
H           -3.41708937110387        2.68581296605870       -1.70914709892877
H           -1.93615433638169        3.40061803361575       -1.10167979849040
H           -2.26255475954199        0.43319148819820       -1.80482582205888
H           -1.69141729458720        1.68171797965849       -2.90539772668206
H           -0.90027685505893        1.62984401207456        0.72888249670482
H            0.26177794803672        2.14020371774177       -1.35375408069351
H            2.04650014272564       -0.56055610495887       -0.33242724673381
H            2.14021829735495        1.08935116337350       -0.92415810997800
H            2.24994773072753        0.22128459031977       -3.34783751611649
H            2.37394075630622       -1.47410142213910       -2.64523256162253
H            5.01693119173141        1.06847100037277       -1.26687711528637
H            7.29891525481200        1.49474458324110       -0.55063483843194
H            9.07846760860853        1.74667182888286        0.97604575413931
H            9.64717796332971        1.04928730054212       -0.56077266921743
H           10.54702830660099        0.72236894268157        0.95437558769006
H            8.08768909442960       -4.24608399697758        2.20298511426739
H            6.38385134936416       -3.72038000361707        2.41940613089054
H            6.92498410988502       -4.38918209613770        0.85425307286751
H            5.17048893133871       -2.83205633048562        0.49856955342009
H           -0.73376053067160       -1.46118180819551       -2.22620191726030
H           -1.21636360466551       -1.07186561965967       -0.57761111779941
H            0.30485448032058       -1.92840499450148       -0.87190060788593
H           -4.93029058666291        2.91824973184225        0.10037869618512
H           -3.78467076926226        2.89107815715306        2.91269183681093
H           -4.90819852720015        1.69487968116521        2.24588515152612
H           -5.41897398574957        3.36708538979625        2.45559976579748
H           -2.86180294263345        4.74623476880590        1.37484623120888
H           -3.46504853362241        4.87089909005697       -0.28764245144888
H           -4.54645675248909        5.15843138663657        1.06871652443643
H           -0.66991467302528        2.98342505122213        2.56278552041784
