72
 energy: 47.634027921965 xtb: 6.6.1 (8d0f1dd)
N           -1.57958362502506        2.93224426353260        2.22652229200419
C           -1.66325488803302        2.21796757842368        1.18909756029152
C           -2.85648471224730        2.09959275091396        0.28754023096643
C           -3.40197636282605        0.68342473787282        0.36384875296266
C           -4.38997135884985        0.26918204172620       -0.53112158692289
C           -4.92097816814650       -1.00489577525487       -0.48674521317764
O           -5.88596173685809       -1.47965807472329       -1.32123624142773
C           -6.46804728545924       -0.59511391845280       -2.24697443115145
C           -4.46357966639722       -1.91959383257022        0.48759881180159
O           -5.04559189030550       -3.15032965867755        0.45558223939689
C           -4.72103246616483       -4.07112653253461        1.46660097800457
C           -3.49540871257788       -1.50323936543778        1.37976232064303
C           -2.97051505701148       -0.21725901564261        1.31642776746745
C           -2.36269997145791        2.39687783688301       -1.15869997397805
C           -1.48773349228700        1.30451204941477       -1.81034819219864
C           -0.14303803532778        1.20002076746394       -1.15668075925489
N            0.53205122183529       -0.02520893636808       -1.05236865763103
C            1.96502023702229       -0.04460874218684       -0.73500016439204
C            2.98332144087262       -0.54232251782062       -1.84138984015188
C            4.60653008688869       -0.71776843717731       -0.84488918916164
C            5.29612855551812        0.48415908119926       -0.90531217312738
C            6.58995331888428        0.67661592855234       -0.41977656429250
C            7.27841587706305       -0.32725365529131        0.22288508245155
O            8.56820547870835       -0.26761525900382        0.66488759515095
C            9.32279315154726        0.89682904609125        0.41255953332989
C            6.58153478741921       -1.53405396841297        0.45895599364484
O            7.32386987907595       -2.43947458363479        1.16455845909268
C            6.77823381438562       -3.69578041396055        1.47112351309857
C            5.28302805802385       -1.71109795754630       -0.04954568991572
C           -0.21934533822228       -1.26251016530316       -0.96136745853808
C           -4.00356063242525        3.07285384316291        0.67801053617160
C           -4.54484026609400        2.74377570858337        2.07041135930521
C           -3.57017098078125        4.53431893949321        0.63234549751657
H           -4.75375548421710        0.96112127300673       -1.27270582720903
H           -6.92700484490859        0.26966262626385       -1.75095572151125
H           -7.24699845458462       -1.16682491840360       -2.75128074068106
H           -5.73347770542675       -0.25138375824976       -2.98327675040073
H           -4.94786081054968       -3.67041039878254        2.46093985711566
H           -5.34395218944180       -4.94532831319477        1.28048154614946
H           -3.66636932900998       -4.36392068031851        1.42772885675748
H           -3.13839570750326       -2.17122859754129        2.14644700822443
H           -2.22989731106867        0.07971869522315        2.03988962033819
H           -3.23130662945645        2.55645325812793       -1.79914101844516
H           -1.79697314173263        3.32863227384268       -1.13712472795041
H           -2.02692517591467        0.35997154899024       -1.73729958951321
H           -1.38828045376238        1.53083226627839       -2.89270665803238
H           -0.80075062459040        1.62967561819312        0.77210883896668
H            0.49635193606078        2.07378489570249       -1.25745081036668
H            2.11877536148807       -0.66881153740941        0.14727319229065
H            2.20793747339078        0.98265827438064       -0.44393480080602
H            2.90214444765277        0.10542881455592       -2.79008001511298
H            2.66788802436833       -1.52658693789999       -2.16035600965195
H            4.84551165418307        1.34492231426789       -1.36904956165892
H            7.08071661480239        1.62183553023545       -0.59638363863479
H            8.87874366055622        1.77677649622632        0.89216000723639
H            9.43263823962324        1.09236379486225       -0.65953408968226
H           10.31251695019779        0.71231999460917        0.83670741923129
H            7.58225317412585       -4.23975101819169        1.96947297111240
H            5.92171248461386       -3.60329214907539        2.14806659711123
H            6.47754971677656       -4.24310193107491        0.57254146039588
H            4.80097866519443       -2.64030726449325        0.22294462192145
H           -0.51103988433453       -1.57606069997169       -1.96118665354352
H           -1.13210546940827       -1.16087390313992       -0.35898719155761
H            0.39217629953831       -2.04947722789887       -0.52097709780606
H           -4.81445046623553        2.93196563757149       -0.04746253638853
H           -3.76584119225988        2.88449159266681        2.81792411137001
H           -4.88711539501736        1.71220812257757        2.11786535942378
H           -5.38164457455449        3.40183920523719        2.29679410017743
H           -2.74631714607039        4.69464758009514        1.31954204090539
H           -3.26781955438905        4.82873299055883       -0.36786648630550
H           -4.40038143866562        5.17195168632910        0.93365313987082
H           -0.68233192139900        2.93243560618756        2.70744768320343
