72
 energy: 17.104572243811 xtb: 6.6.1 (8d0f1dd)
N           -1.57116668920405        2.91193115487069        2.23493152247278
C           -1.63953969708408        2.19823996065335        1.19723616886815
C           -2.82365703806325        2.08983083388661        0.28244705187975
C           -3.37701959696323        0.67518172322298        0.35353475217359
C           -4.36532588327105        0.26133619415350       -0.54177291680989
C           -4.90452475466948       -1.01164836070152       -0.49782899528468
O           -5.87626540757772       -1.48460451390079       -1.33273988889072
C           -6.44629929736630       -0.59728717771823       -2.25880996204901
C           -4.44990877385338       -1.92944124863247        0.47514120120146
O           -5.04009309253171       -3.16073052640236        0.44499112276002
C           -4.70522195667005       -4.08081644694052        1.44957308522292
C           -3.47567091965717       -1.51654231365685        1.36464038082234
C           -2.94765920713764       -0.23139382479614        1.30365792600223
C           -2.31408477347219        2.36912717825193       -1.16291205041063
C           -1.41989535931417        1.27176499013432       -1.76974324000182
C           -0.10458228069967        1.20002839021388       -1.07209634183022
N            0.56239007492458       -0.02448255236963       -0.90263641775760
C            1.97953864701043       -0.04431731658168       -0.56965697668888
C            3.04721266980607       -0.55786142175139       -1.67140333822659
C            4.51535906926526       -0.64590938452545       -0.88733457950274
C            5.22733325820998        0.55388507244159       -0.94660752961832
C            6.52516956373707        0.72957716695754       -0.47079668315585
C            7.19035366363732       -0.29179673602414        0.17573445575024
O            8.48107681707180       -0.25176818489783        0.61867622122092
C            9.24589591537719        0.90594668664803        0.38237726008552
C            6.47773168220792       -1.49143592699443        0.40564662709167
O            7.20872707972834       -2.42119982267754        1.09370436960346
C            6.63996125527488       -3.67038580490875        1.37792554358018
C            5.17454061867741       -1.64359859665052       -0.09082579477248
C           -0.16974547714112       -1.27077980331169       -0.86061640260884
C           -3.96559332019994        3.07218576229875        0.65112163913159
C           -4.53327712273130        2.75269808862074        2.03345200682501
C           -3.51967603541468        4.53192347611227        0.60678853939733
H           -4.72542184875564        0.95546478959509       -1.28346442988814
H           -6.90028938500988        0.26914093399731       -1.76249169293940
H           -7.22494017713980       -1.16595098559807       -2.76543173599493
H           -5.71119681927624       -0.25326406387889       -2.99589993167668
H           -4.92769903790791       -3.68418905965192        2.44645141993044
H           -5.32757264642307       -4.95467398733989        1.26163292030741
H           -3.64985787764387       -4.37343259258742        1.40557071095872
H           -3.11748906458355       -2.18512136299373        2.13043833331892
H           -2.20384354018910        0.06218552586362        2.02659764943803
H           -3.17127462318021        2.50581565621020       -1.82288483130620
H           -1.75293831091986        3.30342817623790       -1.14996196081195
H           -1.95300000469340        0.32398039521304       -1.71191742698537
H           -1.27295849539175        1.48866868139451       -2.84153783491377
H           -0.77309147533466        1.63660883369683        0.76699191943622
H            0.55465790378470        2.05067689027764       -1.17509397546550
H            2.13713861937834       -0.67816753399462        0.31059576979154
H            2.22972363980984        0.98008856268790       -0.27808152558324
H            2.94178964131197        0.10003404906627       -2.59320109800857
H            2.66730317127138       -1.53584495246814       -1.96871018399547
H            4.77274899078275        1.40956230499392       -1.41986508760503
H            7.03466696942722        1.66613153686084       -0.65174846571867
H            8.81018878001680        1.78705515609039        0.86795482584770
H            9.36365001058416        1.10836861705578       -0.68812288588163
H           10.23023273228013        0.71027252884729        0.81046598268243
H            7.42179825805765       -4.24525008397228        1.87911570401901
H            5.77754323568413       -3.57141803004477        2.04555187380935
H            6.33922534122458       -4.19638583245914        0.46686688995457
H            4.67494822755333       -2.56721934440447        0.15975852883894
H           -0.42557382082409       -1.59891578935413       -1.86921706250993
H           -1.10076906140959       -1.18685384150671       -0.28648990123371
H            0.43970471299866       -2.05044119600233       -0.40070862506719
H           -4.76512888907614        2.93909855423869       -0.08904478621941
H           -3.76407117970527        2.88848242481783        2.79135089254299
H           -4.88396389555631        1.72358804725311        2.07669527040505
H           -5.36693970387476        3.41846125178155        2.24563887251021
H           -2.70482382059333        4.68351067426942        1.30534911237009
H           -3.20019570865432        4.81982063545948       -0.38981062003590
H           -4.34897006916238        5.17599357257683        0.89419047749636
H           -0.67543397263882        2.88775603839729        2.72404479303290
