72
 energy: 85.690405518080 xtb: 6.6.1 (8d0f1dd)
N           -1.57024043477706        2.92369217734732        2.21985738215535
C           -1.66584011939920        2.21005452550003        1.19282021556230
C           -2.88535983012596        2.10733102728509        0.30512222751820
C           -3.43063580235281        0.69102644645613        0.37356249943769
C           -4.41875665619420        0.27550070010267       -0.52111026815200
C           -4.94684831278031       -1.00024627991653       -0.47321863419115
O           -5.91012712302857       -1.47959841077601       -1.30944302611897
C           -6.49284750574631       -0.60012780204452       -2.23826813736573
C           -4.48570643491969       -1.91311521933829        0.50101819772924
O           -5.06165227251261       -3.14773805170509        0.46898906479626
C           -4.73742245973215       -4.06482785808874        1.48530600047166
C           -3.51824671262225       -1.49554648639434        1.39423759212514
C           -2.99779157840238       -0.20864731538333        1.32811234763983
C           -2.41713210033730        2.42535880938870       -1.14780386022480
C           -1.57294945032685        1.34244025437765       -1.85129925322539
C           -0.19993345113666        1.22075120282913       -1.27760368840298
N            0.44865040103063        0.03207033157176       -1.15555107110946
C            1.90611141429941       -0.01386794128516       -0.89977578922060
C            2.73146891023458       -0.48342895410202       -2.08300787530980
C            4.75118272819821       -0.79190454569207       -0.67891312825149
C            5.38086498833481        0.41687517913790       -0.84291414502517
C            6.67581422365512        0.62777597338234       -0.37271784528400
C            7.37303015985870       -0.36666410662190        0.27328976527910
O            8.67040144352269       -0.28512651230144        0.70955908592293
C            9.40272306558631        0.88443995790089        0.44436124044644
C            6.71435205272997       -1.58527750099844        0.53073680136056
O            7.46744298812211       -2.47460798766916        1.24177830519138
C            6.92583678901156       -3.72440291542055        1.56452385335892
C            5.41819752654646       -1.78456864677419        0.05504644937231
C           -0.27523432968823       -1.22577198520462       -1.06451016070993
C           -4.03937636808999        3.07082195866864        0.71106741468776
C           -4.56079615305673        2.73658652637960        2.11002391767445
C           -3.62110148605317        4.53764923178243        0.65990693773173
H           -4.78495409962846        0.96781167699019       -1.26175039548655
H           -6.95796698947756        0.26501066585996       -1.75000124601204
H           -7.26912165124846       -1.17689280117681       -2.74219276777597
H           -5.75805756602502       -0.25582431620977       -2.97445486553068
H           -4.96770390152701       -3.65829225317499        2.47660471699019
H           -5.36063394109886       -4.93879478908936        1.30090496758949
H           -3.68269380615300       -4.35440394490696        1.44952808650928
H           -3.15883775427016       -2.16114786389818        2.16158356230183
H           -2.25861953864041        0.09189504015508        2.05261906062861
H           -3.29436936147658        2.60698557314805       -1.76877180686463
H           -1.84396005715898        3.35176728755325       -1.12002148127921
H           -2.10219862459781        0.39391598212432       -1.77180931202115
H           -1.50649691642588        1.58910091604042       -2.92748665284236
H           -0.82734280995889        1.61692861457219        0.77426047405449
H            0.42963292599345        2.10269832798074       -1.34007164231321
H            2.07059466915101       -0.64225225507454       -0.02563694432036
H            2.17996426978203        1.00373568189905       -0.61119407893548
H            2.69009645300685        0.13827767722813       -3.01707873559614
H            2.63131592207020       -1.51649005292112       -2.35314966100042
H            4.91590494221573        1.26123453086766       -1.32333635182628
H            7.14762088430349        1.58021455013578       -0.55025418299314
H            8.94872592615598        1.76548925643483        0.91651538326223
H            9.50474468421754        1.07585334207348       -0.63065066554781
H           10.39708426109535        0.71251104544708        0.86622137614919
H            7.74527317654940       -4.24491333634880        2.06225149645218
H            6.07185113915344       -3.63610378327858        2.24830432913848
H            6.62200375877079       -4.29250867068764        0.67798525594157
H            4.93324449333113       -2.71541772504796        0.30285484540746
H           -0.58954040860037       -1.54841893871933       -2.05347025407420
H           -1.16985265619608       -1.13410163602858       -0.43708558303206
H            0.35352768978274       -2.01529028274811       -0.64567110902747
H           -4.86147157960296        2.92501893411084       -0.00412494119977
H           -3.77625094721615        2.88576822936754        2.84918769013374
H           -4.89198427951346        1.70144902068493        2.16189479260774
H           -5.40057374987743        3.38607396165504        2.34823021399149
H           -2.79017023346914        4.70359143324771        1.33637505604946
H           -3.33561756787263        4.83605996250207       -0.34376121486584
H           -4.45261661887962        5.16809529877894        0.97326342101325
H           -0.67300838383321        2.97331105642675        2.67704927878417
