72
 energy: -4.819408655425 xtb: 6.6.1 (8d0f1dd)
N           -1.51393539845483        2.81094023504825        2.23538934006705
C           -1.57425198012760        2.15573815626365        1.16512182673417
C           -2.76795438952983        2.06717913993899        0.25548018276787
C           -3.33343598931614        0.65560326577988        0.33222478703955
C           -4.32139192079726        0.25073552734943       -0.56748601731652
C           -4.86525916549441       -1.01845722578269       -0.52077682061079
O           -5.83521301473968       -1.48918814787268       -1.35585027943051
C           -6.41119525967173       -0.60891099959773       -2.28619965631291
C           -4.41345263332318       -1.93686566552312        0.45228411925665
O           -5.00566033669516       -3.16487008179484        0.41982621472493
C           -4.67543684198869       -4.09411699573508        1.41948115214693
C           -3.43726506255345       -1.53501130947659        1.34347658450303
C           -2.90426073740405       -0.25219204126322        1.28282459168224
C           -2.22952611323703        2.31895569732151       -1.17934661895183
C           -1.30401262269879        1.20546817811474       -1.69675731343128
C           -0.02426902270568        1.14694748308799       -0.93969881035861
N            0.62263875107990       -0.04793781365128       -0.67288640621369
C            1.99908445189660       -0.03761568241746       -0.27706596031880
C            2.96919870788372       -0.54491940272060       -1.39309448653714
C            4.39896718334932       -0.49552136913576       -0.85734648246604
C            5.12027080575137        0.67874815302062       -1.01865489776974
C            6.42690472990725        0.80891402783183       -0.56855480924358
C            7.05209309750268       -0.23257767316416        0.09083002145958
O            8.33370459896457       -0.22288409960146        0.55424284157207
C            9.11890602378826        0.92237598758496        0.33911593244616
C            6.32722907432248       -1.42356488251227        0.31727180916196
O            7.02533759145713       -2.39355258841244        0.97575915869742
C            6.41087837843149       -3.63268756310196        1.21197799004559
C            5.02133446042516       -1.53300256755714       -0.14138694133385
C           -0.08296433391939       -1.29579435122123       -0.69131608018231
C           -3.89600265894688        3.07764432388580        0.60231054521088
C           -4.50628505301133        2.77177194002181        1.96925151337454
C           -3.42819611902178        4.53132684785381        0.56662413761412
H           -4.67793532571336        0.94847153230079       -1.30714027861845
H           -6.86538881551720        0.25951481916142       -1.79542979128031
H           -7.18856356380902       -1.18419851076760       -2.78748243769043
H           -5.68109559991290       -0.26769794266783       -3.02851450541227
H           -4.89596976680274       -3.70706927757714        2.42028539635547
H           -5.30092675713035       -4.96433972358244        1.22537530427290
H           -3.62126706377535       -4.38859569382290        1.36881551318024
H           -3.08331135456606       -2.20869083362641        2.10737917603745
H           -2.16189465422437        0.03583001662848        2.01053378226349
H           -3.06905631350518        2.41596814473559       -1.86906923053581
H           -1.68198069572939        3.26229497157823       -1.18929027412484
H           -1.84277728695474        0.25978929771866       -1.64909512449153
H           -1.08094755135891        1.40911412933566       -2.75354652077375
H           -0.70954001077179        1.64495045713944        0.67182258385344
H            0.62266420293127        2.00751689744579       -1.00480578619870
H            2.12732450463411       -0.66852925481708        0.60901758746784
H            2.28239165920903        0.98282997124151       -0.00227503342150
H            2.79574880875365        0.07630751806995       -2.29276590615578
H            2.67404710459929       -1.56531192437602       -1.64293068844806
H            4.66671792057811        1.51483092167647       -1.52856093032981
H            6.95882119988299        1.72855196933528       -0.75651972241230
H            8.69584318485438        1.80393474471595        0.83309341677244
H            9.24714860451063        1.13256805568866       -0.72835088837670
H           10.09049936286475        0.69818640453518        0.77803133043424
H            7.16275393940963       -4.24179210685686        1.71365488433233
H            5.53686906749460       -3.53073694885286        1.86394879378061
H            6.11563969322250       -4.12317698492985        0.27855430334549
H            4.47731968394580       -2.44696382399476        0.04301440585912
H           -0.27918653358252       -1.61718210842112       -1.71785792616571
H           -1.03828985466320       -1.22342205374348       -0.16103805453199
H            0.52737765802518       -2.05239247573029       -0.20246670629655
H           -4.67841741353079        2.95661986558663       -0.15698492960563
H           -3.75733730837312        2.89793143174543        2.74643680015332
H           -4.87941702324040        1.75086845042105        2.00721845333717
H           -5.33427132655284        3.45095502146551        2.16005088197811
H           -2.62860520673843        4.68522969333263        1.28394960688386
H           -3.08374379390218        4.81947372876131       -0.42269068296560
H           -4.25746293781917        5.18315257463254        0.83358478555156
H           -0.61771420633495        2.80281526586453        2.71371039092598
