72
 energy: 96.319711435768 xtb: 6.6.1 (8d0f1dd)
N           -1.58744827060398        2.98500337504722        2.13563739684009
C           -1.71648059195954        2.24415363061979        1.13334327511576
C           -2.97091800786967        2.13481023566309        0.32311381232254
C           -3.50267266959652        0.71175241386427        0.38965842371256
C           -4.48832324762149        0.28971938593756       -0.50559031997391
C           -5.00829223356349       -0.98998013520674       -0.45204314562041
O           -5.96742212035856       -1.48087687601861       -1.28214922255615
C           -6.53817217182104       -0.63240227673978       -2.24503634053349
C           -4.54046038648326       -1.89476680000615        0.52883474373591
O           -5.10663372840343       -3.12917599091308        0.50406065036093
C           -4.76243793189284       -4.04915884383983        1.50855041680581
C           -3.57512191274713       -1.46910575845992        1.42164755793388
C           -3.06375421779724       -0.17894432815327        1.35117274281732
C           -2.54558308722517        2.48870817364624       -1.12522302568374
C           -1.75959970081538        1.39428845903919       -1.86514489899827
C           -0.35234278369322        1.25639671405348       -1.41734703941892
N            0.29929707045702        0.12741029180180       -1.24479897937696
C            1.81198587505305        0.08874825843474       -1.21973066417739
C            2.26811421526787       -0.39460552880657       -2.51206174120410
C            5.00285285171804       -0.92918234995346       -0.38768917770454
C            5.56175900376069        0.27679791604420       -0.70456926362159
C            6.87654360160008        0.52846092459007       -0.31272235960257
C            7.59080262027850       -0.43458849782101        0.37473586213389
O            8.88705947760934       -0.31127047137039        0.80897771198585
C            9.57782281329171        0.87348842002525        0.53017003337581
C            6.98885673754661       -1.66749910169851        0.69153694960686
O            7.78177451352228       -2.53721260016816        1.37901000467142
C            7.28238208914154       -3.79428120362553        1.73489592900472
C            5.67759213105746       -1.90566168834343        0.30304892177102
C           -0.38186466726068       -1.14396826334922       -1.26908597078035
C           -4.10377298832892        3.08592021997802        0.79739010223679
C           -4.58352146680893        2.73398801233728        2.20533069470958
C           -3.72151561032547        4.56252423291256        0.73642059907895
H           -4.85816268830620        0.97965718199888       -1.24645896192735
H           -7.01859506016099        0.23849924431238       -1.78651681849047
H           -7.29359214878902       -1.23395491104415       -2.74993858757962
H           -5.79825491647610       -0.29539103171970       -2.97965102990544
H           -5.00090257785465       -3.66730333585638        2.50705686367940
H           -5.36252007987778       -4.93569957291612        1.30873283517719
H           -3.70119775553056       -4.31714993856757        1.46484591910520
H           -3.21128484348722       -2.13051529172486        2.19134179404041
H           -2.32721508809770        0.12588081352654        2.07852941465918
H           -3.44303818250279        2.69573823709263       -1.70351272109741
H           -1.95505022297502        3.40708203002732       -1.10373680558043
H           -2.28608225964484        0.44206892425279       -1.80627242709403
H           -1.73087980519100        1.69725114971769       -2.91338054505459
H           -0.90125424129360        1.63334156233375        0.71456931043261
H            0.23310231133599        2.15988462363176       -1.35146982476384
H            2.06670763694118       -0.55997536259239       -0.38736537922437
H            2.13483483428862        1.10217713890292       -0.97499447332078
H            2.17495797639794        0.23641700550112       -3.38774114195380
H            2.32593214425020       -1.45652917013870       -2.68920949475835
H            5.02309017661519        1.03750061770595       -1.24621603747077
H            7.32428918193985        1.48022202005754       -0.55474897286202
H            9.09616566556608        1.74522571268203        0.99010192377529
H            9.66910404223034        1.04958070408967       -0.54927226249838
H           10.57219072598489        0.73797196920165        0.96293017323964
H            8.14259727237199       -4.25993991187875        2.22077376792031
H            6.43763078368600       -3.73992048561441        2.43848656312087
H            6.98073757778468       -4.40192742032096        0.87197345103923
H            5.20422662651380       -2.84746146419749        0.53851583014168
H           -0.75212961880600       -1.43578643819843       -2.25195403652653
H           -1.23502373744380       -1.08595242795373       -0.58804109909895
H            0.29844689163384       -1.91685909813728       -0.91325989224181
H           -4.94615589336118        2.92499674166504        0.11480196793603
H           -3.78517013116915        2.89277335817897        2.92250724193920
H           -4.91348632817231        1.69921524444566        2.25938807558379
H           -5.42154995580538        3.37148475444222        2.47383711863964
H           -2.87255409600444        4.75267104933341        1.38399049483074
H           -3.48387078542960        4.87955624344229       -0.27561655886383
H           -4.55900662911983        5.16215382915948        1.08655636619291
H           -0.66588404476533        2.97612947417542        2.56554802058237
