72
 energy: 98.184311974719 xtb: 6.6.1 (8d0f1dd)
N           -1.60600686753434        2.98134696220791        2.15711677464118
C           -1.70762075892676        2.24517688070321        1.14636078690192
C           -2.94917486710589        2.12263985806050        0.31570351228123
C           -3.48213489212732        0.70168807387244        0.38247197538758
C           -4.46861988218619        0.28383826414735       -0.51300112959966
C           -4.99057558161102       -0.99494991168057       -0.45912440743899
O           -5.95188839703177       -1.47955620816148       -1.28849417723705
C           -6.52727407269982       -0.62153149505695       -2.24018464524923
C           -4.52523637316747       -1.90318643001574        0.52050661804406
O           -5.09540068335228       -3.13684555481071        0.49460038743874
C           -4.76438949889468       -4.04915916960111        1.51073411953059
C           -3.55971233698514       -1.47943089962815        1.41459005196824
C           -3.04571365318395       -0.19008411776054        1.34347648320172
C           -2.50572346059910        2.47374010956274       -1.13037181922007
C           -1.71068521883262        1.38016676748290       -1.87042949553111
C           -0.30743893974806        1.22716529697742       -1.41004446292032
N            0.34916205122998        0.09208035455158       -1.30064834763848
C            1.82553760862106        0.06262822822721       -1.13697550108515
C            2.39180627493139       -0.42482498001802       -2.41161944891889
C            4.94033363990194       -0.89709994240533       -0.46983778120827
C            5.51599632381704        0.31118871951953       -0.75375430897082
C            6.82093120028212        0.55376043145430       -0.33069540994364
C            7.52957914111524       -0.41830067547069        0.34423573584980
O            8.82481529991445       -0.30775389295587        0.78283932711417
C            9.53009832578701        0.86947066393527        0.50521247949767
C            6.91496428557781       -1.64793750105670        0.64348275729043
O            7.69337957360687       -2.52089596050987        1.34218395168332
C            7.17530667899483       -3.76992817453678        1.69846946939520
C            5.61045769189086       -1.87566011409544        0.22978827879737
C           -0.34819089930675       -1.17212789011839       -1.22770773894569
C           -4.08791295777078        3.07561415803916        0.77333745566115
C           -4.57806009770550        2.72793876879716        2.17877482668682
C           -3.69796672329496        4.55012230428594        0.71101530454958
H           -4.83742533493701        0.97707531557082       -1.25123881084210
H           -7.00319433436073        0.24750730208814       -1.77345577380603
H           -7.28870699418681       -1.21580806838711       -2.74582332181096
H           -5.78996199402951       -0.28060893724021       -2.97582419359147
H           -5.00212191696119       -3.64953674824549        2.50317076237497
H           -5.37445834739407       -4.92994908916150        1.32069437676504
H           -3.70722730695330       -4.33048346298108        1.47598759147292
H           -3.19581949236274       -2.14018993706192        2.18448374812304
H           -2.30902208963386        0.11504248409915        2.07046253215508
H           -3.39736839797503        2.68666959026227       -1.71908467992394
H           -1.91786071478135        3.39313102914026       -1.10062512225265
H           -2.23813474412069        0.43205465913212       -1.80812729123811
H           -1.69137577139127        1.67432764528059       -2.92982296065072
H           -0.89825699131647        1.62089164656152        0.74969521347826
H            0.28670192760123        2.12864550797400       -1.35423484149357
H            2.02660869060152       -0.56370441383350       -0.27722379716159
H            2.14210694719884        1.07408185017579       -0.87509537531305
H            2.32274442852322        0.20342985022932       -3.30228451055732
H            2.42480025550622       -1.48959856776224       -2.59923658451494
H            5.00862551640671        1.10203621761677       -1.28123288151910
H            7.27270337184005        1.50845417407965       -0.54536839468436
H            9.05905647403352        1.74899417659048        0.96440413476921
H            9.62433530846606        1.05168354210723       -0.57393191579852
H           10.52205202380359        0.71244182237460        0.93970437785602
H            8.02856955233381       -4.24219515339627        2.18583355905729
H            6.32997348524065       -3.69846485644771        2.40010025328507
H            6.86863230787938       -4.37364638635079        0.83472691316422
H            5.13588314624081       -2.81559523140358        0.45970025285258
H           -0.71669463644570       -1.48733561075453       -2.20033330229240
H           -1.20415595961715       -1.07453530223283       -0.55525852548926
H            0.30711570208898       -1.95124787560096       -0.84040565362402
H           -4.92278739375788        2.91504914722321        0.08333910073629
H           -3.78473558543692        2.88948647813611        2.90171149951247
H           -4.90299945878815        1.69144221261292        2.23324410482710
H           -5.42034434688523        3.36463671080373        2.43739956913430
H           -2.85378481763566        4.73622070358381        1.36639531376059
H           -3.44643761277024        4.85992467259425       -0.29935986760248
H           -4.53436884215318        5.15872186551566        1.04936887076720
H           -0.68645415843002        2.98858015067866        2.57958736949008
