72
 energy: 10.235477947403 xtb: 6.6.1 (8d0f1dd)
N           -1.55853687100083        2.89181493709833        2.23500137910138
C           -1.62564068110424        2.18458887736450        1.19483056521853
C           -2.81154656104768        2.08439373339264        0.27839058897857
C           -3.36795285291758        0.67134460688361        0.34984030825066
C           -4.35628519298506        0.25982607572645       -0.54563801121223
C           -4.89649788638296       -1.01198456292136       -0.49966021654543
O           -5.86664447230662       -1.48554615600833       -1.33703042903410
C           -6.43795907467900       -0.59860208695376       -2.26251119120893
C           -4.44284326085863       -1.92867436371296        0.47257795660758
O           -5.03188018214752       -3.16134497497926        0.43976985211304
C           -4.69901747116991       -4.08333669429984        1.44369464690852
C           -3.46727829762347       -1.51947530320719        1.36209096580986
C           -2.93856539281576       -0.23555240879057        1.30028775284015
C           -2.29649282078443        2.35865385624810       -1.16534484093997
C           -1.39589525256047        1.25812365583520       -1.75537253285033
C           -0.08716590378004        1.18765603107844       -1.04419044033150
N            0.57828963486887       -0.03384664263967       -0.86519928349878
C            1.98507718179752       -0.04419925198778       -0.51221176835481
C            3.04511305659543       -0.55732938174035       -1.61492075506878
C            4.49304432110176       -0.61660694625514       -0.88792920283968
C            5.20699923328627        0.58030063600786       -0.95990550473432
C            6.50589372313850        0.74751588830094       -0.48920013845375
C            7.16340482288971       -0.27781134861078        0.16014971954929
O            8.45232257839003       -0.24546091251534        0.60640027117648
C            9.22091379747968        0.90957539885856        0.37366182933144
C            6.44745172575394       -1.47267400428070        0.39140911537016
O            7.17153261972782       -2.41425120280565        1.07113988042929
C            6.59371981163043       -3.66202822635941        1.34508262383514
C            5.14387949900913       -1.61884830031405       -0.10092588528058
C           -0.15278806050071       -1.27648480085306       -0.82784395890375
C           -3.95095259696611        3.07255186281971        0.64207907829565
C           -4.52743868176423        2.75620654139990        2.02126793580668
C           -3.50119795299486        4.53131477077434        0.59865243333515
H           -4.71568532358589        0.95443785992931       -1.28687118696417
H           -6.89012952663843        0.26920044693465       -1.76617819694778
H           -7.21689654104238       -1.16734574216957       -2.76895788853940
H           -5.70428349489494       -0.25541412602581       -3.00153850043523
H           -4.92129713950914       -3.68861451206967        2.44132330715454
H           -5.32216023419035       -4.95643528054915        1.25455731982064
H           -3.64397157247282       -4.37660544188518        1.39865541744235
H           -3.10980707960139       -2.19003967128903        2.12629270738572
H           -2.19470056332122        0.05657934899734        2.02392000235309
H           -3.15070723428695        2.48728345073795       -1.83138623304337
H           -1.73821032974387        3.29514273283959       -1.15676271346830
H           -1.93063503393835        0.31064393582307       -1.70113654237925
H           -1.23381936787746        1.47288431796404       -2.82473647044892
H           -0.75993944524117        1.63636150825732        0.74712768081949
H            0.56865421950381        2.04127409096633       -1.14192276199251
H            2.13790222583346       -0.67652491804472        0.37060029193314
H            2.24013885188614        0.98010468179838       -0.22450776458126
H            2.91884887417654        0.09807836224300       -2.52938683878310
H            2.66301367064191       -1.53885539103156       -1.90176261849799
H            4.75097880285051        1.43166826081174       -1.43978247722793
H            7.02001448853106        1.68044299309774       -0.67143417566250
H            8.78733205123194        1.79068707882028        0.86064173340996
H            9.34049898104000        1.11279975974502       -0.69645278382776
H           10.20271737485193        0.70875588761175        0.80395302864600
H            7.36895360016054       -4.24503611691781        1.84683156293599
H            5.72877519964528       -3.56279582490169        2.00928310046395
H            6.29443266774874       -4.18102472744489        0.42942918286314
H            4.63593754443573       -2.54120981599534        0.13746788284328
H           -0.39699152919120       -1.60364265138206       -1.83990821556921
H           -1.08881362866727       -1.19447568712334       -0.26213362668711
H            0.45664043842087       -2.05127936136801       -0.36165128947699
H           -4.74705999411552        2.94164660622978       -0.10199781651929
H           -3.76080160568261        2.88869009264316        2.78238911498990
H           -4.88340549173021        1.72894906065300        2.06306945766366
H           -5.35994005183024        3.42509460705984        2.22894601203327
H           -2.68920086083664        4.68244720975635        1.30074772141157
H           -3.17676984227748        4.81882588739334       -0.39669950886491
H           -4.33041481020624        5.17717440277746        0.88187773841637
H           -0.66069106370250        2.87106607699706        2.71403663048461
