72
 energy: 25.067227051044 xtb: 6.6.1 (8d0f1dd)
N           -1.58053341391309        2.93276970729622        2.23374144914906
C           -1.65266137978786        2.21212652351916        1.19863073879756
C           -2.83611186290635        2.09496144230329        0.28633152735139
C           -3.38547074738548        0.67766529648809        0.35717309721185
C           -4.37361523470411        0.26270113181132       -0.53919767862474
C           -4.91044477221867       -1.01104720529924       -0.49570538046656
O           -5.88107313760711       -1.48353689166214       -1.32861511293916
C           -6.45424391605204       -0.59631139027498       -2.25507080621004
C           -4.45436203542244       -1.92910695936967        0.47851281660405
O           -5.04338896104382       -3.15933980184828        0.44948434671010
C           -4.71047833444093       -4.07792468657711        1.45627300134164
C           -3.48195233063667       -1.51266087770504        1.36835713594642
C           -2.95364329762098       -0.22648994730413        1.30692559756709
C           -2.33156236547502        2.37833233459576       -1.16087217616835
C           -1.44265700533108        1.28474691883752       -1.78568852443455
C           -0.11820937209620        1.20505422001462       -1.10376970155189
N            0.55102087695204       -0.02643185194100       -0.95771080505757
C            1.97161874379222       -0.04570612117524       -0.62528386517258
C            3.03291460152754       -0.55417752741272       -1.72075917697309
C            4.53891408203699       -0.67017930614793       -0.87762021097169
C            5.24723328585706        0.52922571512320       -0.93379500466345
C            6.54429378900679        0.71037298741493       -0.45441192948476
C            7.21991208815505       -0.30345573354885        0.19016764026126
O            8.51113579292464       -0.25759450060083        0.63187721869400
C            9.27286556019584        0.90166014935339        0.39187829411285
C            6.51067586567943       -1.50510358167647        0.42206590224047
O            7.24673816941796       -2.42431463827934        1.11693026911152
C            6.68656143932815       -3.67727608213676        1.40978200206676
C            5.20908237028889       -1.66577248423417       -0.07991929137271
C           -0.18807440252816       -1.26956052432675       -0.89703489773674
C           -3.98017954234194        3.07220210993931        0.66019902164212
C           -4.53879923889963        2.74989226644226        2.04600526066573
C           -3.53774052810546        4.53296384284785        0.61508363755362
H           -4.73553739789173        0.95717219858960       -1.27917907341215
H           -6.90809101667171        0.26993662819800       -1.75713060893712
H           -7.23285589720645       -1.16671548740245       -2.75992849563311
H           -5.71876973871938       -0.25427473535044       -2.99184495971414
H           -4.93374645405805       -3.67909589944119        2.45219557543717
H           -5.33272487732292       -4.95221251014653        1.26946636026473
H           -3.65507584017275       -4.37050971797900        1.41404374062134
H           -3.12382423912134       -2.18020338090038        2.13530349014575
H           -2.21189061029080        0.06858020519257        2.03058468753195
H           -3.19248727745534        2.52242273258700       -1.81430521312134
H           -1.76914644277082        3.31191242782362       -1.14575408007166
H           -1.97598930544166        0.33747588691846       -1.72296212650794
H           -1.31292044355343        1.50487492818298       -2.85959153313913
H           -0.78755902565442        1.63559776647424        0.78409855747634
H            0.53975916457774        2.05827203468139       -1.20933372475294
H            2.12564786743899       -0.67339695846566        0.25750543881885
H            2.21651766363752        0.97928327113897       -0.33169916451639
H            2.95232094275690        0.09758495881505       -2.65799184248855
H            2.67179992596913       -1.53114976602090       -2.03027702895485
H            4.79860170355705        1.38996723773624       -1.40279641740733
H            7.04811365772745        1.65106771126337       -0.63172219041130
H            8.83508275671277        1.78311024350088        0.87530235648344
H            9.38860721108769        1.10220323744049       -0.67910539713017
H           10.25905769953419        0.70974583532156        0.81856829308369
H            7.47466490078791       -4.24380935277783        1.91082213143824
H            5.82585285448678       -3.58047164687953        2.08028714818059
H            6.38534526337123       -4.21176196578024        0.50360191751268
H            4.71761648998913       -2.59269099451811        0.17874106827278
H           -0.45564307811651       -1.59573870328533       -1.90230325380917
H           -1.11306198061189       -1.17767343941442       -0.31384247046986
H            0.42182177764562       -2.05143791669238       -0.44206105813556
H           -4.78334863403655        2.93720320209935       -0.07586059457246
H           -3.76569535249427        2.88782794446850        2.80012315896546
H           -4.88488238861423        1.71920594467018        2.09071396758215
H           -5.37399600163532        3.41267887598045        2.26249793932353
H           -2.71973764894958        4.68787381093494        1.30990641867727
H           -3.22344112050617        4.82125783663615       -0.38291900552861
H           -4.36744173299002        5.17513291384320        0.90618867654319
H           -0.68520484756250        2.90526069412285        2.72758547266515
