72
 energy: 98.446320015383 xtb: 6.6.1 (8d0f1dd)
N           -1.60680375570539        2.97852058417511        2.17315656934650
C           -1.70444219182948        2.24208486468549        1.16111170246998
C           -2.93888799168138        2.12061102872023        0.31425799927898
C           -3.47210798603370        0.69842826118154        0.38067967259959
C           -4.45888775501122        0.28127451027497       -0.51472466546333
C           -4.98236635954793       -0.99696732906366       -0.46199148685548
O           -5.94412647225012       -1.48016973612911       -1.29369931966249
C           -6.52144820298751       -0.61595135822037       -2.23869683139538
C           -4.51809821804836       -1.90668530905581        0.51667246092401
O           -5.09017502168079       -3.14125754910024        0.48991149372870
C           -4.76194812657665       -4.05191810091884        1.50787958191383
C           -3.55192970855680       -1.48439272355702        1.41073339157534
C           -3.03645653633316       -0.19534161480157        1.34016066930044
C           -2.48883610097083        2.46390343065351       -1.13481138463108
C           -1.68828432256226        1.37605514472746       -1.87795052444452
C           -0.28564015729015        1.22661825696574       -1.40239103366601
N            0.37108781285529        0.08144131374998       -1.30274104932883
C            1.83762794741400        0.04386105668303       -1.09489163492077
C            2.45660709351292       -0.43794170573691       -2.35563614116307
C            4.90625058268106       -0.87917738795853       -0.50933889645417
C            5.48970498738361        0.33092420925702       -0.77170894049655
C            6.79199590698166        0.56846054606820       -0.33735386324583
C            7.49897258851579       -0.40854492874511        0.32997986381174
O            8.79492558608134       -0.30422390258005        0.76777720223351
C            9.50572132551675        0.87145299186923        0.49103831634161
C            6.87752898960756       -1.63764380169957        0.62002987541660
O            7.64923145325830       -2.51330212437347        1.32393548121931
C            7.12346789265473       -3.76063278086914        1.67712150188447
C            5.57579494104336       -1.85985923519728        0.19364854634894
C           -0.33555433566041       -1.18274376077707       -1.20068547790517
C           -4.08373071084367        3.07389900997459        0.75918228979400
C           -4.57595896926232        2.72813866277071        2.16484903417093
C           -3.68532284355184        4.54727489583864        0.69986247637136
H           -4.82692901801871        0.97508403293493       -1.25290016969995
H           -6.99486888780709        0.25190965148303       -1.76726584644167
H           -7.28586894633874       -1.20664131566809       -2.74418899209327
H           -5.78504670437645       -0.27324143990397       -2.97434948273807
H           -4.99737537111679       -3.64845105590216        2.49941303506555
H           -5.38036884862467       -4.92904508310372        1.32503721816177
H           -3.70657495326486       -4.33791910289278        1.47705487746533
H           -3.18862509945298       -2.14543493378134        2.18062380132330
H           -2.29966603159733        0.10897501397231        2.06726711576074
H           -3.37697542204177        2.67113366577061       -1.72862852448894
H           -1.90269224406469        3.38364834524298       -1.10207590330090
H           -2.21206413722934        0.42538019766222       -1.80409327111588
H           -1.67132175758811        1.66419281750134       -2.93851776896297
H           -0.89269226339457        1.61726676102921        0.76202192949026
H            0.31143440225001        2.12873436149986       -1.38995960000492
H            2.01586811876681       -0.57648073556822       -0.22407909912119
H            2.14513535875399        1.05416395769232       -0.82640647222357
H            2.39597803281591        0.18785191039589       -3.25354722217229
H            2.47798620361776       -1.49887108751413       -2.55577725874805
H            4.99517036752731        1.13662997541448       -1.28854835531043
H            7.24675365010413        1.52408765461872       -0.54102012057510
H            9.03764308060666        1.75130717930713        0.95458306861141
H            9.60031621121405        1.05604451513904       -0.58707175123510
H           10.49844344886507        0.70819740651509        0.92166717009924
H            7.96801943275011       -4.24341580423630        2.17011271206525
H            6.27582176992731       -3.68477123962328        2.37318644990822
H            6.81672615209954       -4.35782766703267        0.80923964134014
H            5.09996313193910       -2.79835111926036        0.42221938202019
H           -0.69349826375149       -1.50054384793400       -2.17434415010534
H           -1.20013645718926       -1.08684514208801       -0.53638020985432
H            0.30937873499459       -1.96966661843134       -0.80765040717191
H           -4.91823288972350        2.91614938202960        0.06448558350764
H           -3.78306258189554        2.88708522877008        2.89050860040409
H           -4.90042084069760        1.69138014121367        2.21981211079190
H           -5.41593295801230        3.36865738631181        2.42037380861811
H           -2.84412187806986        4.72658717405651        1.36001219860619
H           -3.42583950371930        4.85342324681510       -0.30911125777470
H           -4.52022527893128        5.16128578235912        1.03269589574969
H           -0.69122012947462        2.99423039421061        2.60083516501513
