72
 energy: 1.041590939121 xtb: 6.6.1 (8d0f1dd)
N           -1.53469993954929        2.85256387847125        2.23407034447254
C           -1.59799051982069        2.16536302659662        1.18351021476070
C           -2.78872497485730        2.07493582141688        0.26778762264364
C           -3.35074000929229        0.66355222416351        0.34074013170973
C           -4.33884502251033        0.25563978011068       -0.55629134310052
C           -4.88037979160780       -1.01465323481817       -0.50880900441436
O           -5.85042926596313       -1.48734967075756       -1.34562934436728
C           -6.42428988723886       -0.60384946796375       -2.27371499375803
C           -4.42768175557372       -1.93142620806428        0.46326129684041
O           -5.01838090090519       -3.16237520188234        0.43032924621459
C           -4.68704331404068       -4.08852170065683        1.43189579375468
C           -3.45143818904967       -1.52686880459613        1.35322751115621
C           -2.92097396929101       -0.24364470317607        1.29081478643728
C           -2.26260362213377        2.33831247828738       -1.17192878194029
C           -1.34945592806732        1.23113044656701       -1.72650956498672
C           -0.05498696142006        1.16314477696310       -0.99089192776840
N            0.60537966786360       -0.04956451371870       -0.77984524378261
C            1.99248899749925       -0.04307671347292       -0.39531688048928
C            3.00065321895803       -0.54609761903954       -1.50918244097169
C            4.44166890154847       -0.55626301099554       -0.87804990005428
C            5.16347865945126        0.62924074152725       -0.99066084688296
C            6.46646321618082        0.77820711661849       -0.52986369925670
C            7.10823355433558       -0.25472883502272        0.12497952059559
O            8.39309440765054       -0.23440241287341        0.58059576696209
C            9.17039023326638        0.91553860562615        0.35733212242573
C            6.38662894915911       -1.44601271261828        0.35384627212961
O            7.09738809536470       -2.40270693050868        1.02326533093825
C            6.50156169578468       -3.64663862371673        1.27848466317343
C            5.08175182190224       -1.57318986409445       -0.12359654041037
C           -0.11816179047308       -1.28923110997898       -0.76074458237480
C           -3.92289882319670        3.07488340962478        0.62236566578057
C           -4.51612631498845        2.76377131427283        1.99565278085263
C           -3.46436905353941        4.53122350217815        0.58278323126086
H           -4.69664398607749        0.95204689667422       -1.29597756439802
H           -6.87641171218701        0.26478522531655       -1.77971322749935
H           -7.20263082014078       -1.17580775407079       -2.77758489366014
H           -5.69259878672028       -0.26192860225514       -3.01472603556503
H           -4.90848221512123       -3.69783102729439        2.43117768166956
H           -5.31134766316257       -4.96027899418014        1.24031422657719
H           -3.63244900353965       -4.38244753183981        1.38412319633974
H           -3.09564400241798       -2.19898593577006        2.11695779580654
H           -2.17654366406729        0.04955248341404        2.01296893382995
H           -3.10999632898103        2.45121447141851       -1.84989707306855
H           -1.71036851915507        3.27861686246693       -1.17321115470013
H           -1.88778718192966        0.28548147740716       -1.67610842375833
H           -1.15676937154363        1.44056304516457       -2.79013519993573
H           -0.73327628164482        1.63866131808950        0.70888216209463
H            0.59509003963166        2.02235420913141       -1.07332815740071
H            2.13112840219399       -0.67409642949266        0.49001550308923
H            2.25839121494456        0.97984390827072       -0.11095789304082
H            2.83326598977207        0.09626584933223       -2.41555313327766
H            2.66774093263259       -1.55095317656281       -1.77726631146280
H            4.70978570168556        1.47411270285784       -1.48455381768558
H            6.99007217756456        1.70439837484947       -0.71468309178544
H            8.74160453235131        1.79678441404072        0.84758516947715
H            9.29493191828213        1.12206822573882       -0.71142685988188
H           10.14658789330987        0.70224471768433        0.79290317541769
H            7.26515286698479       -4.24243634586594        1.78064169395839
H            5.63192879175576       -3.54637791234038        1.93637671650917
H            6.20463236563010       -4.15194776636885        0.35404572426260
H            4.55773441062062       -2.49308664031665        0.09039999888002
H           -0.33956488145180       -1.61233982923796       -1.77987655309834
H           -1.06327985244074       -1.20839121049257       -0.21169050687521
H            0.49190530129577       -2.05385067121383       -0.28250280680164
H           -4.71252032402380        2.94944364598616       -0.12936404046717
H           -3.75691229019287        2.89145173202421        2.76406691888055
H           -4.88113735602619        1.73983018566750        2.03541612710932
H           -5.34629780562355        3.43808528406583        2.19516618921627
H           -2.65854761408882        4.68366514149762        1.29248971902727
H           -3.12999395320911        4.81911100820313       -0.40957889639690
H           -4.29356769077531        5.18030756851754        0.85787617490372
H           -0.63458416272477        2.83344348854519        2.70071315702541
