72
 energy: 34.975983486576 xtb: 6.6.1 (8d0f1dd)
N           -1.58588963312212        2.94509275493972        2.23153777124327
C           -1.66315344596245        2.22147154487810        1.19754802762633
C           -2.84714068161171        2.09785303271163        0.28688039297739
C           -3.39350516555001        0.67964050020998        0.36064835425852
C           -4.38155569078307        0.26557446748425       -0.53536950881696
C           -4.91516379090678       -1.00851427641448       -0.49254563659909
O           -5.88337608771694       -1.48088779871056       -1.32477613627075
C           -6.46118012995907       -0.59527758713870       -2.25188049951337
C           -4.45878691747785       -1.92490222203855        0.48263330496763
O           -5.04471250434589       -3.15486589389737        0.45252624668732
C           -4.71592979594474       -4.07423244203763        1.46147613244834
C           -3.48879086698281       -1.50811100032328        1.37392301856504
C           -2.96202224278744       -0.22207849607570        1.31189549251178
C           -2.34625998243352        2.38694596081154       -1.15996639297574
C           -1.46341933151879        1.29341690450140       -1.79927576724699
C           -0.12816397971976        1.19541915733727       -1.13126304767460
N            0.54534101311921       -0.03087487438331       -1.00631471607232
C            1.97463419225220       -0.04626494205275       -0.67994245635085
C            3.02141800927763       -0.54700269798950       -1.77924397127717
C            4.57210407792672       -0.69836787207032       -0.87248274434574
C            5.27062474020154        0.50396872904033       -0.92197791184453
C            6.56501141409626        0.69126018527635       -0.43847785362942
C            7.24889200586634       -0.31587190025659        0.20510040901050
O            8.53737330143828       -0.26269360816494        0.65073130582884
C            9.29692668081227        0.89880518488425        0.40301245269897
C            6.54506337981941       -1.51940593172651        0.43944870129048
O            7.28435453043629       -2.43087159258829        1.14124068158385
C            6.73280127562260       -3.68646809073624        1.44047077321025
C            5.24606305937123       -1.69026477192111       -0.06954289882306
C           -0.20403478380231       -1.26965943342937       -0.92873721662226
C           -3.99225889032547        3.07284788780742        0.66881439019092
C           -4.54162165251495        2.74680611991848        2.05822850802513
C           -3.55403793727750        4.53426972615299        0.62373086694940
H           -4.74467988503501        0.95901801227186       -1.27579386368363
H           -6.91746359321459        0.27000123767001       -1.75439710997989
H           -7.24017327361159       -1.16600703804987       -2.75580573926891
H           -5.72590509964493       -0.25309051626345       -2.98803041960507
H           -4.94052272362986       -3.67439289921898        2.45675679592980
H           -5.33819292918733       -4.94895617449823        1.27531598772130
H           -3.66070295555358       -4.36726913467229        1.42136770463037
H           -3.13119523188785       -2.17569885688415        2.14087967554266
H           -2.22101735309099        0.07423305267489        2.03539222429319
H           -3.21132795452747        2.53886320770437       -1.80717800788438
H           -1.78328827024064        3.32076290251128       -1.14254321216427
H           -2.00210330857636        0.34884002863332       -1.73082204332926
H           -1.34984048349942        1.51747869244866       -2.87677495578345
H           -0.80251132949869        1.63225455850812        0.79400493509471
H            0.52043259778105        2.06108198016557       -1.23675163086310
H            2.12244966820355       -0.66922838859440        0.20488855098059
H            2.21115550689565        0.98079624060805       -0.38531138296511
H            2.93894853780600        0.10487534683327       -2.72282617707284
H            2.67955338807188       -1.52550504223760       -2.09512133324335
H            4.82121378836954        1.36616849394610       -1.38604016433034
H            7.06146179169110        1.63371488659194       -0.61639200443818
H            8.85596954634714        1.78006763059341        0.88345250771175
H            9.41051325544226        1.09667368625272       -0.66848731023414
H           10.28467150577626        0.71065401070916        0.82902836083526
H            7.53012305409712       -4.23953218803620        1.93985448476379
H            5.87412410216970       -3.59260743495626        2.11423171198218
H            6.43289696388000       -4.22769325494338        0.53791756353336
H            4.75993719816970       -2.61776937131556        0.20020347408645
H           -0.48410858913941       -1.58950651407210       -1.93141552698662
H           -1.12321847994269       -1.16911212012653       -0.33673638997790
H            0.40586049087070       -2.05210102821914       -0.47962492175534
H           -4.79916909590847        2.93415250752039       -0.06131131274804
H           -3.76509832808664        2.88574986037681        2.80873028616561
H           -4.88621257581055        1.71588904688788        2.10427940810348
H           -5.37814951852817        3.40725869778027        2.27925945660889
H           -2.73289128993190        4.69376800533360        1.31473976228729
H           -3.24586402568662        4.82659332200244       -0.37528922259334
H           -4.38432233650453        5.17334184123328        0.92024505202418
H           -0.68775083708802        2.92289962340920        2.71914506652893
