72
 energy: 95.105551012647 xtb: 6.6.1 (8d0f1dd)
N           -1.59635975451387        2.97140711354532        2.14992976022148
C           -1.72100472391290        2.24078601546833        1.13955805565267
C           -2.98014286124290        2.14001757518947        0.32464448490048
C           -3.51233105561132        0.71678049645168        0.39285555298515
C           -4.49788793523040        0.29190795594917       -0.50162457969522
C           -5.01670658849139       -0.98794583285499       -0.44842128299305
O           -5.97350792482717       -1.48353319169946       -1.28055565103270
C           -6.54075262929894       -0.63870279242142       -2.24880574379290
C           -4.54778587784364       -1.89176155648691        0.53277166678683
O           -5.11246040783048       -3.12867033440483        0.50666310852321
C           -4.75784273800049       -4.05232788285680        1.50494852682507
C           -3.58271762291362       -1.46436158325234        1.42488274003929
C           -3.07201902881118       -0.17349310598524        1.35424621134477
C           -2.56383405857826        2.49459986735548       -1.12930340688786
C           -1.77919415182599        1.40463457634340       -1.88134726958156
C           -0.37350601002253        1.26745441231432       -1.42137017910208
N            0.27376921813603        0.14313401072489       -1.20887283891362
C            1.80737056890596        0.09844110046996       -1.25669953064718
C            2.20414508725494       -0.38273403786215       -2.55303517114509
C            5.02929217169168       -0.94296737762490       -0.34124368747268
C            5.57979610071152        0.26072827761862       -0.67418714540406
C            6.90067702787918        0.51524294274280       -0.29884289987796
C            7.62159622474719       -0.44207534645158        0.39144095906365
O            8.91980197278707       -0.30991442937550        0.81810911254127
C            9.60078645053256        0.88131607525561        0.53718174879594
C            7.02667537071623       -1.67787610176483        0.71661351576093
O            7.82789850287504       -2.54798390585814        1.39746860477829
C            7.33203121887090       -3.80952864934370        1.74732250995247
C            5.71097592361642       -1.91916106339841        0.34144120725771
C           -0.40177567916652       -1.13285536164456       -1.26005503267954
C           -4.11370614203660        3.09219032258485        0.80488006344607
C           -4.58696397399512        2.74062821211510        2.21563185866466
C           -3.73050031602237        4.56943523279860        0.75047095677600
H           -4.86839705581016        0.97996187382139       -1.24386882045158
H           -7.02356812021138        0.23271727148516       -1.79417549734967
H           -7.29273767509929       -1.24257876532474       -2.75477127933007
H           -5.79857674864868       -0.30339159702440       -2.98155682336161
H           -4.99489835024562       -3.67514716054810        2.50538916178555
H           -5.35487461761270       -4.94044652042023        1.30341428716597
H           -3.69529940371416       -4.31430148133123        1.45594190667017
H           -3.21838649934451       -2.12587866617754        2.19465227476635
H           -2.33572744839290        0.13134675964710        2.08185218801447
H           -3.46562618674780        2.70322954223562       -1.70344033436849
H           -1.97272781372771        3.41231469345033       -1.10745059969238
H           -2.30847506742318        0.45453328879991       -1.80738799030621
H           -1.75716688020555        1.70129657293960       -2.93599070517932
H           -0.90670725074552        1.63490927029029        0.71123156321752
H            0.20779004406779        2.17385846615087       -1.33482632183724
H            2.09201403947849       -0.56056555642430       -0.43770617079795
H            2.12408243829658        1.11572470390018       -1.02384578846185
H            2.09600987828912        0.24859142668803       -3.42035275583314
H            2.28218364173456       -1.43953278026288       -2.73534610925164
H            5.02800062608016        1.00913354215182       -1.22016134994520
H            7.34793719801244        1.46434152957354       -0.55518044372152
H            9.11447922732999        1.74677812845863        1.00201672008241
H            9.69054666271650        1.05424265267200       -0.54132362873127
H           10.59688766232179        0.75717168624533        0.96473195882055
H            8.17705144155268       -4.29668657498400        2.23768463201685
H            6.48823332653678       -3.75598276976603        2.44832371985470
H            7.03664285594336       -4.40690212273530        0.87658506459908
H            5.23898002962751       -2.86113737930372        0.58060945207824
H           -0.76398322444975       -1.40726055035375       -2.25472070596704
H           -1.25252995238279       -1.10346856586570       -0.57572011819214
H            0.29767743344884       -1.89657312986181       -0.92591118489533
H           -4.95870625509917        2.93756249209501        0.12262115325174
H           -3.78166936089884        2.89540504817288        2.92583200575411
H           -4.91770118099442        1.70636437925965        2.27273579570229
H           -5.42229383106297        3.38021397997162        2.49024336798015
H           -2.87747181888326        4.75854146291164        1.39426754891311
H           -3.49812556785980        4.89170798099670       -0.26083913196626
H           -4.56672561699418        5.16739730078444        1.10673712380198
H           -0.67588733877143        2.96919429334016        2.58675111447078
