72
 energy: 91.509919440756 xtb: 6.6.1 (8d0f1dd)
N           -1.58048528012670        2.94153890397051        2.21311268034685
C           -1.67192214440677        2.22132645150853        1.18866516389787
C           -2.89702963779056        2.11164028928301        0.30846501116560
C           -3.44031314694415        0.69346873310901        0.37558055230830
C           -4.42846024635911        0.27714650758937       -0.51896973141893
C           -4.95606238881948       -0.99893373397873       -0.46956761470373
O           -5.91877876529456       -1.47952344430603       -1.30571063479117
C           -6.50101965610586       -0.60226622938099       -2.23642724689137
C           -4.49411304037146       -1.91077925474455        0.50528131641227
O           -5.06865106833968       -3.14648936229302        0.47379681821317
C           -4.74356058997431       -4.06166880989158        1.49094418922307
C           -3.52669654432491       -1.49252001499841        1.39854196028376
C           -3.00714951249614       -0.20508385327596        1.33134148385042
C           -2.43484935851747        2.43532107166578       -1.14528422095978
C           -1.60272064339489        1.35181445949021       -1.86216866986349
C           -0.22076967838354        1.22109859674530       -1.31536648680489
N            0.42555664492484        0.04411896809889       -1.19332086485035
C            1.88755128581814        0.00002343654615       -0.95159133862995
C            2.66222706883289       -0.46682450278817       -2.15862143689146
C            4.79150547811741       -0.81620492917558       -0.63315094771432
C            5.40658253768901        0.39475800715153       -0.82067820002781
C            6.70424280110794        0.61131570105909       -0.36115513778120
C            7.40493512265863       -0.37877905516247        0.28756121233039
O            8.70275433587499       -0.29024723815895        0.72354392797625
C            9.42869553818494        0.88110306582132        0.45496773660178
C            6.75669733689910       -1.60050481494080        0.55205822523437
O            7.51373084737159       -2.48370840700986        1.26463755381976
C            6.97445871252560       -3.73272750759920        1.59413064584333
C            5.45936201158072       -1.80584385865605        0.08964744031757
C           -0.29189655012384       -1.21533149031884       -1.09854779597906
C           -4.05110799652696        3.07123706587940        0.72226585186697
C           -4.56512529606060        2.73409567029677        2.12320400524780
C           -3.63766407742904        4.53973388141241        0.66914130500255
H           -4.79516545935075        0.96959826022763       -1.25882128851414
H           -6.96725157790659        0.26345107258251       -1.75045558516826
H           -7.27668890340721       -1.17982176178294       -2.73968624275987
H           -5.76634932905655       -0.25881636121057       -2.97326227771486
H           -4.97464319501410       -3.65488736614459        2.48207345584917
H           -5.36623898825218       -4.93624646513060        1.30744626828772
H           -3.68856903352488       -4.35049891547679        1.45631032340333
H           -3.16648498956722       -2.15737135167146        2.16669202079257
H           -2.26855219751863        0.09620650714032        2.05631223880931
H           -3.31496173300893        2.62405688537420       -1.75972886932117
H           -1.85821187258058        3.35979792746256       -1.11536070622536
H           -2.12977107543111        0.40284440413259       -1.78108170567832
H           -1.54858878198197        1.60564768809653       -2.93849574438561
H           -0.84303501668654        1.62102756858722        0.77098641602311
H            0.40296433089282        2.10601637324858       -1.36649746718510
H            2.05595111368587       -0.63093201150560       -0.08168374300785
H            2.17043896121516        1.01445635388127       -0.66494274751937
H            2.61522530591250        0.15313965928856       -3.08234299617660
H            2.61242275832179       -1.50541791099794       -2.41672431862776
H            4.93644038736353        1.23497582292784       -1.30292617424321
H            7.17189363938574        1.56449552550393       -0.54308925050596
H            8.97120395952905        1.76207685010377        0.92510910951452
H            9.52814503177303        1.07106462749530       -0.62091588534256
H           10.42376569698470        0.71196119104354        0.87729608229695
H            7.79962425520926       -4.24498064477701        2.09062022835505
H            6.12188458138263       -3.64675509427412        2.28095032256909
H            6.66909263335732       -4.30798368030379        0.71212893104264
H            4.97581879589441       -2.73831598373299        0.33108705949666
H           -0.61591895379156       -1.53812717965922       -2.08397032015849
H           -1.17938779475877       -1.12458602682364       -0.46217300261641
H            0.34186923687226       -2.00456244751199       -0.68682283424109
H           -4.87656185683817        2.92253569248903        0.01166218996856
H           -3.77837607888058        2.88576512252253        2.85916383499979
H           -4.89378306638782        1.69819687465839        2.17600524667959
H           -5.40530149270407        3.38124321465775        2.36561705326863
H           -2.80423884476990        4.70830496422876        1.34180759789752
H           -3.35809213964766        4.83965228741608       -0.33579103085075
H           -4.46987615495444        5.16661146001466        0.98701163676704
H           -0.67982970166672        2.98358602014809        2.66502882117475
