25
 energy: 12.710317092157 xtb: 6.6.1 (8d0f1dd)
C            3.42371075396999        1.10911157777924        0.14932843838397
N            2.37667799728836        0.13427424842996        0.01030241347605
C            2.59812781904817       -1.23710037006972       -0.01706609447321
N            1.38386610175960       -1.86267020600518       -0.11669851069746
C            0.40141096777220       -0.94428423317267       -0.03743119594109
C            0.94273578784371        0.34027659526516        0.04865113869291
C            0.02924431641429        1.43789801605921        0.07927840938056
O            0.27428203828569        2.63632643816302        0.11087400829113
N           -1.51778818288362        1.10926395640797       -0.02120530845089
C           -2.51702279538803        2.18306074889743       -0.22269621409719
C           -1.94736336348281       -0.14873742509202        0.21202739175835
O           -3.10038033992095       -0.49751912784760        0.29887666002344
N           -0.93260130076878       -1.19597054517878        0.05405085174186
C           -1.35478889414058       -2.58303936894852       -0.09114064920499
H            3.65927686643379        1.29604105400000        1.22136497256548
H            4.33376112768187        0.78759111661523       -0.39460728436144
H            3.11029351403730        2.05593558942792       -0.28741961219326
H            3.52956288688114       -1.76977449007680       -0.09653313866773
H           -1.90947040130219        3.08419615443908       -0.35557656332058
H           -3.18081883464274        1.99329758529245       -1.08723097701363
H           -3.17359550968069        2.34975979855207        0.63915149899183
H           -0.85464498567239       -3.24954713740311        0.63260735890074
H           -1.18179458315361       -2.94433698428083       -1.11969597810748
H           -2.42528769618087       -2.62036639731231        0.13740118812734
H            1.26230719167573       -2.86548891431005       -0.15149777270519
