25
 energy: 59.730237182470 xtb: 6.6.1 (8d0f1dd)
C            3.51661689096044        1.01785266331957        0.17074433438743
N            2.43831442826528        0.07526116861902        0.09492050048223
C            2.66292206602758       -1.27174899177475       -0.01196433221960
N            1.46073077396239       -1.91316110671224       -0.10244311095266
C            0.44789874723046       -1.00667410141867       -0.03380116632459
C            1.01599678466310        0.28893387403350        0.08346854536562
C            0.23134708333012        1.42976211042571        0.11094345210222
O            0.28611708559595        2.61813798989588        0.29132605594833
N           -1.79979040754575        1.20520368968813       -0.06718630757445
C           -2.75560105264619        2.30095323712475       -0.25190599510646
C           -2.14912467270726        0.01134249725352        0.22184123140214
O           -3.11580501982822       -0.57687390054193        0.56885868887352
N           -0.86556653438596       -1.18813085904373       -0.01778005367132
C           -1.31190148678489       -2.56169224287958       -0.12981321778944
H            3.59658509499769        1.46928173095145        1.16353698536373
H            4.43727791105778        0.52095825588803       -0.16454647581932
H            3.38198568896714        1.88982767605997       -0.45417047418999
H            3.58953101843247       -1.72519044285617       -0.26246217494525
H           -2.13254290290431        3.14792639771050       -0.53162289081885
H           -3.45804575455396        2.06978786724612       -1.06041215657194
H           -3.37251209545713        2.54371602846193        0.61369078352503
H           -0.66298092586101       -3.24494554580507        0.44142364049553
H           -1.32170654721016       -2.81528088739381       -1.19599334410618
H           -2.31549467866569       -2.68714611894519        0.27284326598417
H            1.38135484633644       -2.89668312118195       -0.26353604487496
