25
 energy: -42.132382869550 gnorm: 0.002065896485 xtb: 6.6.1 (8d0f1dd)
C            3.22036083733797        1.20224675237895        0.02176421033385
N            2.23421556639430        0.15930778844252        0.00494645493367
C            2.45869161763399       -1.17637309341473        0.00026255101997
N            1.35222526979051       -1.88484971591850        0.00110232527315
C            0.34670481747665       -0.98346363327416        0.00820182413288
C            0.88181479448719        0.31580532656164        0.01154293938120
C            0.04145532675043        1.48886785208657       -0.00120951231014
O            0.42552977211547        2.63661359596594       -0.01788030270628
N           -1.31155989428220        1.14884666433592        0.00345604936973
C           -2.27958892680578        2.23112593169915       -0.00578104845245
C           -1.86176218785803       -0.12742005261368        0.00866141840758
O           -3.05312774076043       -0.29649680733612        0.01105235051462
N           -0.97872379766680       -1.21243489859209        0.00977519595371
C           -1.50049371999094       -2.55724938962657        0.00458867701872
H            3.72029587240350        1.23448462724036        0.99230716146426
H            3.97058158311311        1.02231300932679       -0.74896272927879
H            2.73113104839010        2.16017177907291       -0.15508316615021
H            3.44091950743387       -1.60709871571967       -0.00395113626044
H           -1.74075282247494        3.17612375507254       -0.00094587269795
H           -2.91029032377813        2.15843159960399       -0.89355925427742
H           -2.92700139200209        2.15738816238837        0.86971602790534
H           -1.13793434163814       -3.09619218010882        0.88108020557848
H           -1.16016977883131       -3.08158805077233       -0.88966475126812
H           -2.58840659175476       -2.50775254226096        0.01774413793541
H            1.78631701861638       -4.74256922293792       -0.09799213792083
