  25
        -42.15283765
 C          2.6149132240        0.7970741698        0.8842337940
 N          1.7454122016       -0.2494444388        0.4161637715
 C          2.1441753996       -1.4686178522       -0.0269157198
 N          1.0671074636       -2.2370642293       -0.3477646192
 C         -0.0393770304       -1.4876317303       -0.0995168735
 C          0.3826270149       -0.2503490546        0.3761332076
 C          0.5406340720        3.2752118671       -1.5064531491
 O          1.6770035279        3.2363148587       -1.4679964747
 N         -0.7130883860        0.5085682219        0.6481823764
 C         -0.8181977284        1.8832170763        1.0645082810
 C         -1.8416064800       -0.2618997584        0.3227626692
 O         -2.9854479909        0.0775359369        0.4321206241
 N         -1.3938898539       -1.5125051930       -0.1388914930
 C         -2.2854444335       -2.5419886934       -0.6053374211
 H          2.6687417483        0.7921586558        1.9752298862
 H          3.6154912924        0.6445305883        0.4845258232
 H          2.2448964385        1.7658850557        0.5531950048
 H          3.1635812667       -1.7781376550       -0.1172476490
 H         -0.1580292558        2.0819972550        1.9108278056
 H         -0.5736589061        2.5586680072        0.2316523344
 H         -1.8539025843        2.0521127231        1.3577518730
 H         -2.1843247036       -3.4450512231       -0.0029774009
 H         -2.0877134462       -2.7756976260       -1.6521596061
 H         -3.2995648366       -2.1561336461       -0.5071828413
 H          1.1152779655       -3.1826044877       -0.6972055668
