72
 energy: -99.699740658462 xtb: 6.6.1 (8d0f1dd)
N           -1.54799376493477        2.99618307976308        2.24270512380674
C           -1.51141080992904        2.29489011047054        1.19794153777606
C           -2.66839791170933        2.13977969370351        0.24651540648550
C           -3.20787499430951        0.72075313600415        0.33665430491164
C           -4.13243186802817        0.26944515893714       -0.60802059033241
C           -4.67367263939242       -0.99992391180304       -0.53964540499730
O           -5.58370357709566       -1.51446216900160       -1.41575023939613
C           -6.09759487299168       -0.68266295067436       -2.42388156762198
C           -4.28802622120140       -1.86921237541217        0.50516116230731
O           -4.87648384811691       -3.09945215067324        0.49046281736415
C           -4.60584694938682       -3.98639866721554        1.54470521616312
C           -3.37618725871039       -1.42097910026751        1.44175248729696
C           -2.84381533024058       -0.13871368254826        1.35681698503253
C           -2.11395964024562        2.41629468875067       -1.17744409946129
C           -1.27147422590730        1.28119542448091       -1.79326271082598
C            0.02671490703085        1.11115506975084       -1.11658360273014
N            0.50105824626709       -0.09208344080442       -0.63488164864163
C            1.83237288759013       -0.15323206105268       -0.14605995570490
C            2.78590410247621       -0.97038768506794       -1.02790614534878
C            4.18056797648880       -0.65310564728149       -0.59187756137972
C            4.59875435780963        0.68187388053282       -0.52709614900982
C            5.97635941373325        0.85235345632644       -0.30051956080584
C            6.82730099446453       -0.20549883650099        0.03803248754457
O            8.15686824723912       -0.12119131932115        0.35471800576813
C            8.82940442784045        1.10793201227814        0.31476612027448
C            6.32894154885407       -1.52591381847912        0.14108907281343
O            7.20078503561000       -2.48532501028895        0.58273076391472
C            6.76960100080181       -3.81988444394492        0.74072803124389
C            5.01505453991969       -1.71854466441233       -0.23140051233819
C           -0.23824762090310       -1.31570043670206       -0.68264040674324
C           -3.84485792785046        3.11275308689330        0.54319686495620
C           -4.50477038722661        2.80284043813905        1.88585956126924
C           -3.42623516603120        4.58091609779408        0.50418522804520
H           -4.43424522923869        0.93009643072556       -1.40406804416017
H           -6.58992621989936        0.20269921743009       -2.00712429233295
H           -6.83428966657380       -1.28720210503189       -2.95136059208973
H           -5.32062703009395       -0.36791431171821       -3.12925498487211
H           -4.88661869925539       -3.56151736213012        2.51432837387526
H           -5.21720697258719       -4.86605550818399        1.34793682908454
H           -3.55041816792688       -4.27956411659540        1.56978120668550
H           -3.06887335816139       -2.05894720998903        2.25553151664770
H           -2.14631466952456        0.18399098512543        2.11401398007145
H           -2.94772171749154        2.62587608478172       -1.84971329448938
H           -1.48992962216871        3.31059726565338       -1.13602067094171
H           -1.83806746296045        0.35196366812018       -1.78296414799465
H           -1.09767633762420        1.55615734364850       -2.84526245862021
H           -0.61467303827424        1.77000315868221        0.83487632281237
H            0.73481755684901        1.92143579522089       -1.13508223902243
H            1.85172537584425       -0.55654658691943        0.87490326609230
H            2.21366184603153        0.86482554258560       -0.10587322738991
H            2.65147143262085       -0.68133541287946       -2.07520242134934
H            2.57846737137367       -2.04018489134011       -0.94759975846837
H            3.81246016091079        1.54777148949923       -0.56716516229011
H            6.42307665783241        1.83153205176000       -0.38685146775442
H            8.37078824491348        1.84416273569965        0.98315914864140
H            8.86633886309775        1.50579738409101       -0.70434690510565
H            9.84631968156736        0.90432428192113        0.65426550453069
H            7.62929688508301       -4.37507396179272        1.12328838638074
H            5.94848268189309       -3.90842275017517        1.46094995295672
H            6.46352242650713       -4.26864167041736       -0.20999668465843
H            4.60534698787070       -2.71898806322078       -0.20091859100455
H           -0.31966412031037       -1.71758649451788       -1.70049305632847
H           -1.23979276341422       -1.16484559563772       -0.27788906139626
H            0.28129091871865       -2.04564563228088       -0.06300053971474
H           -4.59096515643510        2.95236086756752       -0.24500326942215
H           -3.78618854542365        2.94429083018293        2.68606792154587
H           -4.86810048451581        1.77829353797050        1.91457632217781
H           -5.34754032539265        3.47198330161229        2.04438910535029
H           -2.67241661326606        4.77230929881728        1.26103449847994
H           -3.03302417291083        4.86135359884981       -0.46970861963321
H           -4.29039184859464        5.20808793325058        0.71203859153258
H           -0.68232915536006        3.02675761388506        2.77866475811919
