25
 energy: 64.097403169937 xtb: 6.6.1 (8d0f1dd)
C            3.72947486383473        0.88289579627102        0.11023966857629
N            2.68558802419193       -0.08388496616543        0.02033563020432
C            2.95297561724033       -1.41564439476095       -0.07450633832501
N            1.78047851238601       -2.09917438315826       -0.07703657725423
C            0.69572919815009       -1.23404133025998        0.01118643927666
C            1.29330607138988        0.10263725629605        0.13265643566047
C            0.68776092113694        1.28681656401339        0.13659754121784
O            0.21303572954715        2.34441707773907        0.37409855669567
N           -2.74103567932325        1.46001250961140       -0.23312570419270
C           -3.18001791881524        2.79470685683298       -0.17267870472064
C           -3.16633111466402        0.37962027586522        0.00760575931023
O           -3.53589039336368       -0.70547867271950        0.17463041732623
N           -0.55994780843632       -1.42823752468960        0.01829672592149
C           -1.10200913610959       -2.74853228384260       -0.03348267288187
H            3.69961180966058        1.46574227735317        1.03153863763505
H            4.64301007540520        0.30229555898681        0.19353344437445
H            3.81119777539712        1.49702127541716       -0.79064560533355
H            3.92832372958817       -1.83362458502012       -0.17260916202495
H           -2.31555107251422        3.44338478119541       -0.05310776505557
H           -3.69637258298782        3.05322176679674       -1.10573851129474
H           -3.87670411964469        2.91723446784417        0.66216524683703
H           -0.51761516676094       -3.40145997604365        0.59997171378342
H           -1.10674080747706       -3.14664852976807       -1.05324379041880
H           -2.11809289599427       -2.71230090944862        0.35086786607569
H            1.73092376266404       -3.09475504171707       -0.17992294727738
