25
 energy: 71.774793209906 xtb: 6.6.1 (8d0f1dd)
C            3.65070964090208        0.92213752052290        0.09606987999252
N            2.55279776915809        0.01198562997450        0.05988107052056
C            2.78744575155303       -1.31067896723905       -0.12715319868943
N            1.62353184101125       -2.00940439879512       -0.08750502798895
C            0.56095753746320       -1.11320968244213       -0.01105932912701
C            1.16123971767337        0.20098209663499        0.13049980486314
C            0.46525735294376        1.34400538953049        0.10788791443430
O            0.31861788980708        2.48361281039670        0.40205804941074
N           -2.25962683468881        1.27355743951276       -0.21891458061233
C           -2.92183431271632        2.53303267970056       -0.20095769400416
C           -2.73029060763537        0.20042021826120        0.02452655602488
O           -3.36015851659086       -0.75567498386338        0.18998406797112
N           -0.70243115984915       -1.30550416880583        0.00828333783731
C           -1.17448311359887       -2.65571898354749       -0.02324579400628
H            3.73939770719346        1.41991366782466        1.05155853404742
H            4.55473111113217        0.31062452218234       -0.08989660768750
H            3.62839801786970        1.72328798415090       -0.63841113007801
H            3.74200259947630       -1.75959511069730       -0.24502437343172
H           -2.17707553125407        3.30581425536563       -0.05402306542682
H           -3.44538377671661        2.72656786176479       -1.13748230252471
H           -3.64226539222758        2.62070656769564        0.60429444919173
H           -0.56423907184803       -3.23628466470287        0.66625849624021
H           -1.08930245852307       -3.05302127799095       -1.04118640862120
H           -2.21824726039426       -2.76608617135923        0.28733571657676
H            1.57665788032025       -3.00488831414856       -0.17589520252620
