72
 energy: -99.704914349016 xtb: 6.6.1 (8d0f1dd)
N           -1.59597882992637        2.99942896416944        2.25855985350343
C           -1.57118731456701        2.22178196551428        1.26677706854997
C           -2.72140331859247        2.04976917732864        0.31111515493303
C           -3.26139375077381        0.63547551762968        0.32197778053450
C           -4.09053251427873        0.22052051514745       -0.74004101597700
C           -4.71828089844521       -1.01202597446810       -0.59533355472521
O           -5.67795514878493       -1.43720753515316       -1.47026124193217
C           -6.31295096785082       -0.42104410224835       -2.20538260213149
C           -4.38524578516265       -1.91715428808791        0.45241076336040
O           -4.98655801295250       -3.14727377750928        0.42026859745100
C           -4.70919976952506       -4.08860689864151        1.43392684486698
C           -3.47273799042949       -1.52138545757464        1.41080099145454
C           -2.95995878648613       -0.23066160167891        1.36168360548272
C           -2.19424001357784        2.27434219421734       -1.12642014043339
C           -1.31918414055367        1.12487466677389       -1.67176601949070
C            0.01699081722436        1.07705422521707       -1.04288961254531
N            0.63438433004002       -0.07574962308281       -0.59606755418305
C            2.01613607565395       -0.03651710985187       -0.23159938780182
C            2.96801220277840       -0.55991689125760       -1.33427548111410
C            4.38995938128599       -0.45144970791543       -0.87890468840153
C            5.10716800002032        0.71580227635677       -1.06767918266746
C            6.41249395506876        0.83099273115673       -0.61169312510351
C            7.02090624688213       -0.22177627651077        0.04840012153066
O            8.29696544801565       -0.22543800055520        0.53110487129622
C            9.09108488333600        0.91572164537969        0.33795956771221
C            6.29448149484063       -1.41594743372043        0.25728718378648
O            6.97489360695172       -2.39826482084732        0.91426036896720
C            6.33807655578971       -3.62916875307514        1.13638848593728
C            4.99482315837635       -1.51170054877690       -0.20224875726863
C           -0.01519160476670       -1.35544428714813       -0.65808169875268
C           -3.92139415406525        2.99696197193164        0.60780759765593
C           -4.54214524822845        2.74455529589484        1.98272456081293
C           -3.55193713616403        4.47263716010481        0.48105174181069
H           -4.21281514778915        0.79492165334745       -1.71738722052160
H           -6.97954088264176        0.16368995193470       -1.55640772211436
H           -6.88303522552334       -0.91507584736925       -2.98396814411600
H           -5.59278898036126        0.25260561375007       -2.67673836792483
H           -5.00178840591113       -3.73044636098144        2.42766185980768
H           -5.30914694446241       -4.96593644634041        1.18920052392457
H           -3.65427276225963       -4.38746883625139        1.46067677097841
H           -3.17304417794030       -2.19050441128048        2.20683519935441
H           -2.29191760186156        0.07873062129588        2.15480180227022
H           -3.06754210425157        2.37160012987457       -1.77184479254195
H           -1.63170256321824        3.20364135537024       -1.17789854988256
H           -1.83688828747071        0.17434265510745       -1.55017233102642
H           -1.21855390542401        1.30163448658859       -2.75400502784759
H           -0.68292542683772        1.65172556201592        0.95460610673749
H            0.63689313848907        1.95285522714100       -1.09137152823784
H            2.15958246814365       -0.63540738873422        0.67547591766740
H            2.28734246966311        0.99597572083273       -0.00095983835711
H            2.81067665257775        0.03591038072697       -2.23469730612011
H            2.71580575128651       -1.59763598163870       -1.55713946370737
H            4.65298147662881        1.54777001102451       -1.58508825089470
H            6.94735512193419        1.75150773038197       -0.78387531020830
H            8.66896096671081        1.79468625540844        0.83739651269638
H            9.23256185695417        1.13688161589171       -0.72564292239520
H           10.05465173321217        0.67714346345551        0.78608323773777
H            7.07436626382363       -4.24849872640665        1.64685966293043
H            5.45434384849401       -3.52103021251478        1.77499010668692
H            6.04963976769437       -4.11343577043480        0.19693700411251
H            4.43074716421152       -2.41966580716274       -0.05239989011041
H           -0.20986684069192       -1.68149611228791       -1.68651213537244
H           -0.96806897492651       -1.32006895985252       -0.12156789808066
H            0.62295073826409       -2.09526731469509       -0.17755950516325
H           -4.68291965013073        2.76494775513743       -0.14746198146092
H           -3.82021538502696        2.96356497636669        2.76235112764523
H           -4.87140548494639        1.71296169809473        2.08392360264207
H           -5.40613362744536        3.39334985326982        2.11568696310420
H           -2.77695136839102        4.72276773372581        1.19824640680692
H           -3.20317030533914        4.71089023815549       -0.52016237240797
H           -4.42693429117562        5.08484271750134        0.68816392007431
H           -0.73524957936022        3.03829960515565        2.80378454874338
