  25
        -42.18841760
 C          3.2310610654        1.1275560380        0.0349305762
 N          2.2620234747        0.0669901703       -0.0155250918
 C          2.5337303765       -1.2518927320       -0.0303857161
 N          1.3764440391       -1.9539068669       -0.0334893085
 C          0.3434287067       -1.0713766320       -0.0154812077
 C          0.8910540753        0.2170899606       -0.0037279689
 C          0.0501505440        1.3238962440        0.0010576472
 O          0.5028280550        2.5907541041        0.0530321263
 N         -1.3087439399        1.0939071878       -0.0335628373
 C         -2.1902162071        2.1060686953       -0.0786741252
 C         -1.8781192985       -0.2277324195        0.0148046575
 O         -3.0689606518       -0.3757917379        0.0408070454
 N         -0.9954836494       -1.2916806161        0.0150728958
 C         -1.5284670280       -2.6417402171        0.0195013290
 H          3.6221437460        1.2416219541        1.0480987283
 H          4.0583825601        0.9082766640       -0.6381716997
 H          2.7541356742        2.0582436927       -0.2624925823
 H          3.5129674327       -1.6806627248       -0.0427481677
 H         -0.2265872465        3.1748239056        0.3210650839
 H         -1.8987392266        3.1049981539       -0.3358136766
 H         -3.2224629911        1.8685579861        0.0353045133
 H         -1.2098766854       -3.1703466758        0.9181774308
 H         -1.2010531515       -3.1804962554       -0.8699408558
 H         -2.6148921227       -2.5715863419        0.0138180475
 H          1.3084414624       -2.9602296149       -0.0479409266
