  25
        -42.14562699
 C          3.5583398409        0.9482071881        0.0324582623
 N          2.4832536591       -0.0046445502       -0.0086528963
 C          2.6069686125       -1.3412010338       -0.0080630176
 N          1.3740083616       -1.8944629536       -0.0104945993
 C          0.4262097348       -0.8872321652       -0.0131789793
 C          1.1335558106        0.3220962331       -0.0061911252
 C         -0.4492624547        2.0825832527       -0.0191004186
 O          0.8167705309        1.6100298528        0.0045435041
 N         -1.5190254322        1.2699176933        0.0189183861
 C         -2.9642961323        1.4479518900       -0.0451901808
 C         -1.7482216534       -0.0490959457        0.0909222679
 O         -3.1272399250        0.0283662901       -0.0075096748
 N         -0.9224222511       -1.1163178237       -0.0048370502
 C         -1.4758679465       -2.4549758251       -0.0128545687
 H          3.8605586225        1.1425503470        1.0643893046
 H          4.4114229208        0.5611881194       -0.5218761317
 H          3.2239147548        1.8825916039       -0.4148520492
 H          3.5293655805       -1.8796060820       -0.0142327257
 H         -0.5450021409        3.1485568672        0.0085807886
 H         -3.3239081400        1.8819191085       -0.9800481985
 H         -3.4010310874        1.9432969409        0.8244728949
 H         -1.1685725082       -3.0082372297        0.8763483677
 H         -1.1620975157       -2.9879789698       -0.9115345829
 H         -2.5600337059       -2.3682932587       -0.0166501483
 H          1.1777437727       -2.8809126942       -0.0211628859
