25
 energy: -42.103027228653 gnorm: 0.002215599297 xtb: 6.6.1 (8d0f1dd)
C            3.25224485058909        1.23715032354852        0.02138081371187
N            2.31723336390339        0.14579762631262       -0.05075681905354
C            2.60778040969522       -1.14927424732794       -0.10312168479381
N            1.47343284372197       -1.87723423214455       -0.14075145343206
C            0.41222405644239       -1.00568553803725       -0.11357959141708
C            0.94928792947445        0.27540965784670       -0.05514079719687
C            0.12139082096797        1.46110688996378       -0.02801459844781
O            0.51851490581353        2.60370774234381       -0.01146124753660
N           -1.23749910138870        1.12668523736909       -0.02538854571476
C           -2.19263679410589        2.23021229159705        0.02210975554868
C           -1.81233735261459       -0.11356320215299       -0.06540247398823
O           -2.99339703448540       -0.30401645161918       -0.05244776536560
N           -0.91625323386943       -1.26543492144002       -0.13280815859417
C           -1.47572255837249       -2.48208977652479       -0.21367673332549
H            3.75799032662954        1.23801145311121        0.98814930715684
H            4.00039553539411        1.14781806101936       -0.76517803429902
H            2.70697412971354        2.17361533628811       -0.09247150684675
H            3.59867444948244       -1.56046081762761       -0.10836166176667
H           -1.63067865459582        3.16076836827672        0.02872792058319
H           -2.84703204541171        2.18928218344715       -0.84740596277384
H           -2.80312936106261        2.15099091796115        0.92057079183387
H           -2.65185546674763       -4.78729417565922        1.53910233086952
H           -0.87333906434174       -3.36483963433968       -0.27746415565111
H           -2.54813300745473       -2.52676358501536       -0.22373257538479
H            1.42630156672295       -2.88566096559651       -0.18170553621574
