25
 energy: -42.167266753202 gnorm: 0.008037722535 xtb: 6.6.1 (8d0f1dd)
C            4.39794877370526        0.37558243804196       -0.01775663382188
N            3.39567846807544       -0.37579826609875       -0.15400769791284
C            2.71755085802899       -1.43417330735959        0.05364525016878
N            1.38031679400094       -1.55836551757886        0.03552114114084
C            0.40414107190105       -0.56429236375489        0.00101711461097
C            0.69153437148499        0.76230192836913       -0.00119156416932
C           -0.36034626541382        1.75888837567219       -0.00613811425520
O           -0.16362588150084        2.95225066865058       -0.00124504500278
N           -1.65068011018151        1.23235710151655       -0.00564328883568
C           -2.78086360486726        2.14619272798644        0.00903545750239
C           -1.96813458866495       -0.10159484009034       -0.01601082524627
O           -3.10452266154473       -0.49606929992147       -0.02188167139648
N           -0.88985375948312       -1.00522203861793       -0.01703404093773
C           -1.23786328875181       -2.41459183108276       -0.03910699320182
H            4.81253707346221        0.61092489365855        0.95582561541874
H            4.80785864109452        0.87006109106426       -0.89368510495968
H            1.69798190567143        1.13570122867661        0.01022281251636
H            3.25756788183499       -2.37671418590477        0.15113120092419
H           -2.39455904422803        3.16284838118444        0.02620799181043
H           -3.39469612451711        1.98405086114761       -0.87723622652929
H           -3.39411691568137        1.95360951653439        0.88962834093909
H           -0.91332949598317       -2.92140554732193        0.87199906431037
H           -0.84111715669341       -2.90762171774282       -0.92821485295672
H           -2.32760755218563       -2.46600616803278       -0.08001885098640
H            1.01863212453729       -2.50467558739508        0.08610853877005
