25
 energy: 0.000000000000 xtb: 6.6.1 (8d0f1dd)
C            3.23720163006194        1.16630919979326        0.08434469647475
N            2.29877817382611        0.07527477071623        0.03981603040599
C            2.58028210190900       -1.21425402444508        0.03006176031096
N            1.43813958087363       -1.93419271955128        0.00098261760884
C            0.39035688448383       -1.05887472636071       -0.00790371836672
C            0.93510056364412        0.21347819449412        0.01709077491437
C            0.09450143893243        1.40504303904423       -0.00410947031874
O            0.49712751527797        2.54126714362870       -0.00342325688240
N           -1.25076640035757        1.06271879480407       -0.03085478223738
C           -2.21907211982101        2.15522099834493       -0.05001256985998
C           -1.81739487048744       -0.20012725993278       -0.04692818574614
O           -2.99983886758376       -0.37846417018721       -0.07008878229737
N           -0.92618586207120       -1.30210215599479       -0.03682761578324
C           -1.46982264913417       -2.64643102187190       -0.06029820460571
H            3.71247264356769        1.21471455160235        1.06488849150277
H            4.00791497605742        1.03430808813993       -0.67357694370751
H            2.69910007168542        2.09770118228144       -0.09130154882931
H            3.56654120610678       -1.63682992603973        0.04233140067262
H           -1.67107961066214        3.09322851271934       -0.02552706933167
H           -2.82428953597071        2.09428624779827       -0.95318082946668
H           -2.87644029173232        2.07745725625962        0.81450067533302
H           -1.17061996399332       -3.19584890659852        0.83242232437030
H           -1.14560257411436       -3.17511610292205       -0.95688275822323
H           -2.55549792440841       -2.55659984320617       -0.07459039797972
H            1.38130855184625       -2.94313852034425       -0.01389874181052
25
 energy: -0.832066684288 xtb: 6.6.1 (8d0f1dd)
C            3.27256745350077        1.15899165423255        0.07854173515232
N            2.32424407552499        0.08795931207431        0.03233387113011
C            2.60887255720160       -1.24072463001913        0.03095759116666
N            1.43458908381799       -1.94263097170453        0.00419339192477
C            0.40778501153806       -1.05255815793344       -0.00889200282125
C            0.94554010557868        0.22437706007888        0.01092964428259
C            0.11604052762695        1.40246297267419       -0.00744490687397
O            0.52416342586736        2.56396329405573       -0.01956294812194
N           -1.25558782817980        1.06622405067001       -0.01051437500143
C           -2.24875876214632        2.14874194521082       -0.01877137188643
C           -1.81071817947282       -0.18789264695666       -0.04258139671782
O           -3.00657949770910       -0.37026369591407       -0.06355936087282
N           -0.92322472339815       -1.29035835732187       -0.03811177645479
C           -1.46508316096422       -2.63070452705723       -0.06185508325261
H            3.75596407434079        1.19694789187932        1.05835815351470
H            4.03712371487309        1.01694309968844       -0.68692963986272
H            2.73679094885870        2.08996277093261       -0.09333244115118
H            3.58486379718518       -1.67126057754303        0.04830228257800
H           -1.68794554781140        3.08890963006301        0.00379754731789
H           -2.85081408370681        2.08714722612402       -0.89911667493766
H           -3.10082924861174        2.07139152157508        0.71914091183814
H           -1.16434815209962       -3.18234908187995        0.83082469836118
H           -1.13721998252245       -3.16207795956434       -0.95736057764413
H           -2.55009614852260       -2.53771604064669       -0.07732714275310
H            1.36487520716706       -2.94645718054600       -0.00498623276722
25
 energy: 14.546996706570 xtb: 6.6.1 (8d0f1dd)
C            3.32456820553385        1.13692185383422        0.06799992990857
N            2.35186837518618        0.09467080272654        0.01942334901264
C            2.63283381531419       -1.26613626688939        0.03374143080535
N            1.42960066788007       -1.94335899287517        0.01086894355838
C            0.42732507056753       -1.04096745644432       -0.00869046382824
C            0.95759015230017        0.24058118726534        0.00172263051147
C            0.13827916189599        1.40327430223974       -0.01012724344999
O            0.54723068230329        2.57618059075848       -0.05085982019994
N           -1.27047811816517        1.08206381284633        0.03245659432887
C           -2.30114803402522        2.14398604698978        0.01995284041256
C           -1.79704386710800       -0.16820329312030       -0.02593088815893
O           -2.99788039766734       -0.36067433876033       -0.05418761836973
N           -0.91613143552000       -1.26894803730989       -0.03860479344410
C           -1.45517207093330       -2.60608800467127       -0.06543685537529
H            3.82394234917801        1.16172877119437        1.04323309977157
H            4.08232868035257        0.98589200439861       -0.70596387239373
H            2.80442136537840        2.07726636774634       -0.09497368724275
H            3.59871181366722       -1.70736780112375        0.05912348676353
H           -1.73276449755780        3.08379063054374        0.06811930463539
H           -2.87982088160982        2.07738345043841       -0.86167144354094
H           -3.38555974534396        2.04330953299997        0.59172275123959
H           -1.15594429701023       -3.16095462220430        0.82739466689228
H           -1.12415388966605       -3.14038690221364       -0.95957532971722
H           -2.53961844607250       -2.50998330488778       -0.08319145258359
H            1.34923000905815       -2.94495173130973        0.01048833661154
25
 energy: 27.082787792775 xtb: 6.6.1 (8d0f1dd)
C            3.37309046573160        1.10963583534878        0.05726746732994
N            2.37012060987872        0.09340953954471        0.01029895698362
C            2.64091525707502       -1.27718635199597        0.03820526462813
N            1.42925921240436       -1.93862489397057        0.02058763778550
C            0.43906400379996       -1.02901397513991       -0.00597362612249
C            0.96788353039610        0.25511246289496       -0.00432437446733
C            0.14537795184905        1.41635364140796       -0.01419851835258
O            0.55364831795014        2.58714139250219       -0.07734592629700
N           -1.28869907277980        1.10180259892042        0.06559265654726
C           -2.36551285553396        2.13831090249174        0.04593951284304
C           -1.78953850962841       -0.15464822799351       -0.01370438548167
O           -2.98971675615738       -0.36059280964994       -0.05013987729189
N           -0.90635455717420       -1.24947776064380       -0.03812998590575
C           -1.44414414816686       -2.58497220782354       -0.06967583653671
H            3.88830910917719        1.11665999790944        1.02626590408574
H            4.12370569624733        0.94567908013603       -0.72326298343640
H            2.88083050907025        2.06714861654269       -0.09598986861680
H            3.60278271759498       -1.72927502004718        0.07225956339215
H           -1.81150773618113        3.08448016224303        0.12787606972829
H           -2.89599457653286        2.06951402059063       -0.86377613838245
H           -3.56797739297164        2.01108197423893        0.52188564683990
H           -1.14906341982940       -3.14025848231409        0.82430024289829
H           -1.10878975737814       -3.11715888165167       -0.96336786851228
H           -2.52832115926648       -2.48529047472494       -0.09249143274823
H            1.34284722836181       -2.94080253664442        0.02893579523700
25
 energy: 31.847653607262 xtb: 6.6.1 (8d0f1dd)
C            3.39492281913005        1.09409374338372        0.05161592491535
N            2.37568509174172        0.09166205903334        0.00772805067620
C            2.63980530839813       -1.27564276565943        0.04105037166720
N            1.43147161508205       -1.93370975125711        0.02742718035510
C            0.44217199425930       -1.02312610306444       -0.00247351350539
C            0.97189007514251        0.26148475190418       -0.00549028929506
C            0.14670924548514        1.42529490196237       -0.01771129676520
O            0.55358757471733        2.58959538554675       -0.09093961036096
N           -1.29830645110046        1.11017473888526        0.07890032584773
C           -2.39602449053560        2.13720046565457        0.05638243826226
C           -1.78834691989773       -0.15147572149518       -0.00991149783056
O           -2.98612625106065       -0.36571070526051       -0.05278903786862
N           -0.90087995841851       -1.24133398961500       -0.03701449303408
C           -1.43773038390053       -2.57751430512639       -0.07208503142116
H            3.91731622900269        1.08843147814417        1.01664331094086
H            4.13928050067932        0.92150808708592       -0.73355708608960
H            2.92128029733548        2.06177460470370       -0.09584648249644
H            3.60129295387380       -1.73147830749565        0.07981156003191
H           -1.85599679424036        3.08769187001515        0.15366650088493
H           -2.90102699871814        2.07338217838237       -0.86271467406782
H           -3.63639007980208        1.99997350168031        0.49677148224924
H           -1.14615525838725       -3.13227410654313        0.82285584503249
H           -1.09849554694724       -3.10696611662611       -0.96536952942048
H           -2.52191587607609       -2.47746163012461       -0.09922968692158
H            1.34419597217339       -2.93654566194224        0.03931313436095
25
 energy: 31.708324103575 xtb: 6.6.1 (8d0f1dd)
C            3.39643418559303        1.09152600489648        0.05055351272051
N            2.37525614739913        0.09104697382118        0.00800443858056
C            2.63753240902120       -1.27207970512640        0.04121283774410
N            1.43272216851275       -1.93198782496480        0.02915341605498
C            0.44114286085849       -1.02252709114387       -0.00043263497157
C            0.97191347701656        0.26186782733514       -0.00416308045537
C            0.14734691302552        1.42739359312870       -0.01782102119769
O            0.55312465320578        2.58883782445125       -0.09623942880283
N           -1.30002084271233        1.10992974532490        0.08132447571665
C           -2.39908885773448        2.13740314377001        0.05740054997953
C           -1.78980234862559       -0.15222286263168       -0.00938647230031
O           -2.98631914912671       -0.36768948647833       -0.05483511892807
N           -0.90047476559496       -1.24077582754162       -0.03575519420724
C           -1.43676498610289       -2.57795429831666       -0.07229070392890
H            3.91951351085487        1.08289382227260        1.01441090091221
H            4.13835113229836        0.91824536965423       -0.73629423990906
H            2.92645392235729        2.06037468286143       -0.09524286742663
H            3.59971573522896       -1.72785259308280        0.08092975697635
H           -1.86089756183993        3.08697031217817        0.16078042683930
H           -2.89679752894762        2.07898740828962       -0.86476480284304
H           -3.63992526113667        1.99912999164456        0.49343721889147
H           -1.14592014877946       -3.13248835602537        0.82274769528058
H           -1.09611357830845       -3.10621775650547       -0.96545903273727
H           -2.52098715227819       -2.47875936721812       -0.10064532466737
H            1.34581973375163       -2.93502292842117        0.04040858882635
25
 energy: 30.827637236393 xtb: 6.6.1 (8d0f1dd)
C            3.39590081303666        1.09097536037391        0.05027784113636
N            2.37461129157912        0.09070420496871        0.00839594931601
C            2.63553038816289       -1.26895953580872        0.04117353021454
N            1.43352363573693       -1.93102576150542        0.03034927010056
C            0.43975914072498       -1.02258145130102        0.00114227951052
C            0.97142598041570        0.26183415773665       -0.00308927741344
C            0.14847055622899        1.42864623773112       -0.01859959479577
O            0.55240600785409        2.58861537110276       -0.10210367226788
N           -1.30120197219589        1.10837535519201        0.08224463803961
C           -2.39955835996842        2.13720016914449        0.05785962765707
C           -1.79165996255151       -0.15317648725331       -0.00977709157292
O           -2.98721254155269       -0.36920081683486       -0.05685800336064
N           -0.90086016293054       -1.24108031846953       -0.03471886350015
C           -1.43663084904945       -2.57907311381677       -0.07214714508543
H            3.91929583988773        1.08091274398689        1.01337194355996
H            4.13639691041399        0.91799949584633       -0.73757281664437
H            2.92730030205655        2.06008456091301       -0.09453003037919
H            3.59828569977064       -1.72486089103095        0.08217934782418
H           -1.86175320441918        3.08549932315192        0.16712807412534
H           -2.89231202517396        2.08517118627273       -0.86691767520225
H           -3.63399639390864        1.99740760144106        0.49233465532426
H           -1.14597820919345       -3.13334309719215        0.82294301992296
H           -1.09507379695655       -3.10653590630320       -0.96526256005137
H           -2.52083792489149       -2.48039998708015       -0.10115997387398
H            1.34638350485974       -2.93415979909350        0.04037042356331
25
 energy: 30.044397744518 xtb: 6.6.1 (8d0f1dd)
C            3.39547070946502        1.09130725509037        0.05022520796491
N            2.37453024783386        0.09070146643813        0.00838511510907
C            2.63489658000325       -1.26795548487972        0.04093791906466
N            1.43368053866127       -1.93079865440665        0.03093452169532
C            0.43916849491693       -1.02267334524123        0.00172120777862
C            0.97098430227732        0.26201252305170       -0.00271007777059
C            0.14937662268093        1.42901776687971       -0.01910757630858
O            0.55148151228409        2.58902428169865       -0.10491496341589
N           -1.30224657309455        1.10725598966593        0.08261228309888
C           -2.40008528982573        2.13671878461680        0.05837023639799
C           -1.79272083021324       -0.15355651055464       -0.01026107680675
O           -2.98794628533627       -0.37020530368139       -0.05805065334946
N           -0.90119987955486       -1.24139381559402       -0.03427888129817
C           -1.43671044865346       -2.57961215382506       -0.07189368277156
H            3.91907663981817        1.08108978154203        1.01311547253502
H            4.13575158078017        0.91865294398972       -0.73786624501071
H            2.92672295715942        2.06033324916582       -0.09439216804928
H            3.59764132558089       -1.72433777364303        0.08312777734810
H           -1.86201318284199        3.08432344969260        0.17107772388356
H           -2.88964440268350        2.08926447176324       -0.86872803937205
H           -3.62790823562586        1.99537770010274        0.49135784705950
H           -1.14597760293663       -3.13375263873226        0.82322575358805
H           -1.09502618073121       -3.10693382324055       -0.96501524490376
H           -2.52089263071398       -2.48093725199189       -0.10095849722590
H            1.34580469868619       -2.93389430573500        0.04011993690625
25
 energy: 29.006634232750 xtb: 6.6.1 (8d0f1dd)
C            3.39517568657791        1.09195170050180        0.05009979816948
N            2.37472862276454        0.09083789982569        0.00801969328525
C            2.63482580446347       -1.26783393353280        0.04025816459610
N            1.43357244977308       -1.93072172430256        0.03142458545640
C            0.43889212719693       -1.02271625536714        0.00197619621810
C            0.97041149025234        0.26247107221188       -0.00257621771389
C            0.15040606103504        1.42910245425200       -0.01941300404725
O            0.54980961174165        2.58987319772651       -0.10611117823693
N           -1.30392026642432        1.10622797214261        0.08293703631812
C           -2.40161653192072        2.13591556243139        0.05928367474969
C           -1.79365407483021       -0.15370825419244       -0.01079621207287
O           -2.98873219908585       -0.37160419149766       -0.05912449952067
N           -0.90146973145151       -1.24175206330780       -0.03391162764197
C           -1.43677563520266       -2.57992777277302       -0.07142575648771
H            3.91891044531250        1.08216324741743        1.01304186744170
H            4.13578162845238        0.91955510936113       -0.73787764140782
H            2.92571864680587        2.06076454646806       -0.09475068029181
H            3.59718287351369       -1.72499459593123        0.08425408488698
H           -1.86307650457481        3.08302093892248        0.17535179101237
H           -2.88649959415155        2.09415299054515       -0.87125150949401
H           -3.61975648324007        1.99239856662380        0.48902756442397
H           -1.14586063387535       -3.13400952010247        0.82370853138828
H           -1.09535519139361       -3.10740699350333       -0.96459601546045
H           -2.52094979868244       -2.48103376505774       -0.10028186134367
H            1.34446586487996       -2.93369758668975        0.03976711191990
25
 energy: 28.700505918558 xtb: 6.6.1 (8d0f1dd)
C            3.39526816974516        1.09213107463469        0.04993821238383
N            2.37487146581843        0.09095227492792        0.00761397284187
C            2.63524726208289       -1.26852630808170        0.03959574984291
N            1.43333969165568       -1.93074823044560        0.03134251127944
C            0.43910432253423       -1.02266668029866        0.00177507759473
C            0.97023701668940        0.26272164629232       -0.00275466220149
C            0.15049190400018        1.42889459466987       -0.01909089575785
O            0.54900132594316        2.59027743590311       -0.10453640643876
N           -1.30465626485029        1.10633671346708        0.08301442304213
C           -2.40284842276158        2.13561485244353        0.05980845025288
C           -1.79361357867136       -0.15353952071774       -0.01065200177130
O           -2.98879877128450       -0.37211688808912       -0.05886706613622
N           -0.90141473411956       -1.24180766655535       -0.03382723363187
C           -1.43673310386790       -2.57976640019498       -0.07116866934618
H            3.91890511385597        1.08279126411783        1.01309505461313
H            4.13628982092214        0.91963138218184       -0.73773773978958
H            2.92551530895401        2.06089320072639       -0.09524916467465
H            3.59731029516904       -1.72581522174032        0.08447055182749
H           -1.86409704540025        3.08285597669691        0.17636200348156
H           -2.88515857887619        2.09544175605512       -0.87243169795598
H           -3.61765680907194        1.99126982533633        0.48694511756948
H           -1.14574551334103       -3.13392829870239        0.82393927993085
H           -1.09561045184820       -3.10744864382958       -0.96439389707722
H           -2.52093300139860       -2.48074621779535       -0.09983515381534
H            1.34389924605734       -2.93367331883013        0.03967808008341
25
 energy: 28.641502888860 xtb: 6.6.1 (8d0f1dd)
C            3.39538710641519        1.09204718025059        0.04974985708794
N            2.37477100628078        0.09106042580226        0.00718828517095
C            2.63574616046503       -1.26941755140206        0.03866223316930
N            1.43304400172563       -1.93075240750865        0.03094305251610
C            0.43940783195347       -1.02259281047842        0.00143970259636
C            0.97021631433971        0.26278171559637       -0.00305771852666
C            0.14986766556559        1.42854315917045       -0.01844063850092
O            0.54857042626183        2.59037971018773       -0.10166830248085
N           -1.30487415949659        1.10695239034363        0.08282078914830
C           -2.40398150539975        2.13554257215926        0.06015720954000
C           -1.79319476824365       -0.15332866449672       -0.00999244042541
O           -2.98857223226064       -0.37219682235430       -0.05765935410268
N           -0.90127089641849       -1.24176421675433       -0.03376322063830
C           -1.43666693380236       -2.57947264205569       -0.07101698116850
H            3.91877564498807        1.08305336120701        1.01318749387075
H            4.13678871408622        0.91922746297400       -0.73754712049682
H            2.92573892337856        2.06089284197691       -0.09575458844048
H            3.59770499455646       -1.72626323647067        0.08440145483876
H           -1.86514782574341        3.08318530571293        0.17605118464932
H           -2.88418380578714        2.09536565794021       -0.87322360569608
H           -3.61757837846943        1.99099116940752        0.48466980575514
H           -1.14568009040042       -3.13379023170869        0.82402652633288
H           -1.09574412205569       -3.10727060057912       -0.96430827446288
H           -2.52090421750489       -2.48044302710400       -0.09957878408015
H            1.34399481350217       -2.93370213964424        0.03974733049121
25
 energy: 28.653980237891 xtb: 6.6.1 (8d0f1dd)
C            3.39532664358752        1.09193249040652        0.04975069101801
N            2.37455630369170        0.09109207196208        0.00724965318907
C            2.63556903751500       -1.26918842386465        0.03846993140886
N            1.43304767394784       -1.93070029861663        0.03090622370263
C            0.43928521541676       -1.02257881999505        0.00152914438056
C            0.97024277240649        0.26267577022074       -0.00305554164850
C            0.14945109928954        1.42855535253825       -0.01849887220545
O            0.54874431448877        2.59016294614907       -0.10191255380298
N           -1.30462024541970        1.10698336526004        0.08267855944808
C           -2.40389872900481        2.13561684953108        0.06013506950467
C           -1.79321698693088       -0.15344200124271       -0.00983129273619
O           -2.98857452716214       -0.37202373179854       -0.05732427422658
N           -0.90132918838511       -1.24173976144201       -0.03372366391910
C           -1.43667893708500       -2.57953090056003       -0.07109077551206
H            3.91872524259139        1.08270087874066        1.01313344321573
H            4.13656183143210        0.91904653332234       -0.73763281446486
H            2.92595685657527        2.06086706996492       -0.09560731062985
H            3.59770856801108       -1.72573168511298        0.08459352908477
H           -1.86507475606107        3.08320591292721        0.17607413098472
H           -2.88407733586705        2.09530963870863       -0.87319247562959
H           -3.61767954625029        1.99116512632106        0.48469463990917
H           -1.14574259614725       -3.13383979942177        0.82395567206201
H           -1.09557111186853       -3.10721030048512       -0.96436113793478
H           -2.52091046086394       -2.48059490720014       -0.09977177884782
H            1.34441353002853       -2.93370477414097        0.03986569979673
