25
 energy: -42.429106244952 xtb: 6.6.1 (8d0f1dd)
C            3.39162408674538        1.09723575114725        0.05367043690958
N            2.39932911567273        0.06458020930063        0.01086549011778
C            2.64781591913825       -1.27303237153510        0.03656983420376
N            1.46385742283474       -1.94146390181746        0.03204609458402
C            0.45567534575105       -1.03639029526023        0.01005489952883
C            1.01393479665283        0.24112809442277        0.01121662414684
C            0.24103325251364        1.42349799331249       -0.01708893629293
O            0.64497720449157        2.57701280087131       -0.13842444502401
N           -1.18072727195858        1.12932951196796        0.09580941307978
C           -2.07390870384828        2.17761437567335        0.08830155539196
C           -1.74309595948670       -0.13667091191170       -0.01039397422223
O           -2.93749451196643       -0.32964316521745       -0.07939054288904
N           -0.87653789275772       -1.24247819503890       -0.02885300222860
C           -1.43847374849135       -2.57904397885454       -0.06868513359743
H            3.90514216811115        1.10115419603309        1.01994002207728
H            4.13478788303122        0.93704534077688       -0.72995908485071
H            2.90279856038313        2.05753322768347       -0.09668232395563
H            3.60995593332162       -1.73103913855094        0.06888009665229
H           -1.67608954575879        3.16207308762559        0.18268954124340
H           -3.05095865239917        2.00619084267738       -0.32972137301338
H           -4.19892676813950        2.04821528094747        0.39677212848682
H           -1.14895044312191       -3.13774148645527        0.82375312672061
H           -1.10520913489770       -3.10937854023639       -0.96344382026159
H           -2.52376499980999       -2.47866337374760       -0.09270918484132
H            1.36688328660464       -2.94329808275638        0.03450647580973
