25
 energy: 0.000000000000 xtb: 6.6.1 (8d0f1dd)
C            3.23720163006194        1.16630919979326        0.08434469647475
N            2.29877817382611        0.07527477071623        0.03981603040599
C            2.58028210190900       -1.21425402444508        0.03006176031096
N            1.43813958087363       -1.93419271955128        0.00098261760884
C            0.39035688448383       -1.05887472636071       -0.00790371836672
C            0.93510056364412        0.21347819449412        0.01709077491437
C            0.09450143893243        1.40504303904423       -0.00410947031874
O            0.49712751527797        2.54126714362870       -0.00342325688240
N           -1.25076640035757        1.06271879480407       -0.03085478223738
C           -2.21907211982101        2.15522099834493       -0.05001256985998
C           -1.81739487048744       -0.20012725993278       -0.04692818574614
O           -2.99983886758376       -0.37846417018721       -0.07008878229737
N           -0.92618586207120       -1.30210215599479       -0.03682761578324
C           -1.46982264913417       -2.64643102187190       -0.06029820460571
H            3.71247264356769        1.21471455160235        1.06488849150277
H            4.00791497605742        1.03430808813993       -0.67357694370751
H            2.69910007168542        2.09770118228144       -0.09130154882931
H            3.56654120610678       -1.63682992603973        0.04233140067262
H           -1.67107961066214        3.09322851271934       -0.02552706933167
H           -2.82428953597071        2.09428624779827       -0.95318082946668
H           -2.87644029173232        2.07745725625962        0.81450067533302
H           -1.17061996399332       -3.19584890659852        0.83242232437030
H           -1.14560257411436       -3.17511610292205       -0.95688275822323
H           -2.55549792440841       -2.55659984320617       -0.07459039797972
H            1.38130855184625       -2.94313852034425       -0.01389874181052
25
 energy: -0.512282633706 xtb: 6.6.1 (8d0f1dd)
C            3.22840105126502        1.17847356828145        0.08578498824011
N            2.29206548681987        0.09199809793079        0.03920477900278
C            2.59560375768472       -1.23416159098784        0.03261169009164
N            1.45969060602755       -1.99714325604984        0.00222390532157
C            0.40362243075979       -1.09197639993841       -0.00807443801959
C            0.91735953495595        0.20709070836888        0.01611187942074
C            0.09329396443785        1.39660479026653       -0.00495231273837
O            0.49232297271187        2.56272060253036       -0.00278445991303
N           -1.26945834741983        1.06477279175338       -0.03244216097142
C           -2.22972292497446        2.16769106975755       -0.05164792797940
C           -1.82555156885353       -0.18936022314201       -0.04877090941040
O           -3.02318387924339       -0.36666593427801       -0.07281423729683
N           -0.93637725166205       -1.30046393132780       -0.03755552302758
C           -1.48577913486596       -2.63108701418868       -0.05999599323259
H            3.72342230995021        1.21284282138976        1.06032844793327
H            3.98767845558108        1.04924492254813       -0.68743990013589
H            2.69235053018980        2.11295710225650       -0.07252750484973
H            3.57585302502023       -1.63933775640365        0.04850468744736
H           -1.67428684585800        3.10358334672195       -0.02800598376798
H           -2.83919692989115        2.11889318920563       -0.95413030354862
H           -2.89060327797710        2.10325758265599        0.81271397973364
H           -1.17395153619582       -3.17564227429591        0.83205262975987
H           -1.15278526814231       -3.15478832307413       -0.95691267477050
H           -2.57056821876055       -2.53499501592520       -0.07190249036460
H            1.52201572637640       -3.06548027188339       -0.01254627077718
25
 energy: 14.928630382778 xtb: 6.6.1 (8d0f1dd)
C            3.21621045433749        1.18529111604319        0.08678822503716
N            2.27822367070212        0.10473099899522        0.03806688779996
C            2.60216722103510       -1.24855343447393        0.03763768598201
N            1.48175629744617       -2.07013653309375        0.00475224519218
C            0.41522944538656       -1.13684347832052       -0.00850563107448
C            0.89163741515190        0.18889414518462        0.01404672010920
C            0.09071176257010        1.37531772569463       -0.00596208717967
O            0.48187887361639        2.55871278540504       -0.00105545056425
N           -1.29649727343322        1.07490043276656       -0.03509322277305
C           -2.24379463141621        2.19048342949741       -0.05422183854402
C           -1.83259788786199       -0.16935387307276       -0.05151978818937
O           -3.03730488481555       -0.35141344463000       -0.07690356753327
N           -0.95068457848983       -1.28933340826636       -0.03863243073843
C           -1.50870062029903       -2.60753388205010       -0.05954042874589
H            3.73972926211246        1.20333911862828        1.05018250015616
H            3.95835005349682        1.07109254989364       -0.70900093144832
H            2.68295090272868        2.12696395934266       -0.04229636972355
H            3.58242315034506       -1.62989626456436        0.05914178857381
H           -1.67839160201879        3.12228251824318       -0.03179664700917
H           -2.85800781572228        2.15277985747897       -0.95546874388981
H           -2.90802674936352        2.13905032504892        0.80993857422560
H           -1.18286699803980       -3.15015918937570        0.82961193018524
H           -1.16814252547414       -3.12916157076921       -0.95565605246092
H           -2.59247944425104       -2.51063128375668       -0.06775393447698
H            1.74844117019274       -3.21179399767694       -0.00972553676285
25
 energy: 30.516337608953 xtb: 6.6.1 (8d0f1dd)
C            3.20673513652571        1.18628239250022        0.08656139893210
N            2.27220442172822        0.10266177490162        0.03870780472133
C            2.60273498025538       -1.25514684794220        0.04206495643837
N            1.49867527319804       -2.10875070090326        0.00714850036315
C            0.42243538109867       -1.16361752059753       -0.00914805134519
C            0.88169571540847        0.17187345670325        0.01336433946775
C            0.08862426914087        1.36208013476326       -0.00589410623744
O            0.47767686382695        2.54479017407841        0.00096692849482
N           -1.31183471052932        1.08707694421048       -0.03748860269054
C           -2.25318686635487        2.20815316532762       -0.05695212075024
C           -1.83637962889200       -0.15785310786446       -0.05405281180070
O           -3.04004284907549       -0.34884420619745       -0.08080614077807
N           -0.95470017219690       -1.27949224387018       -0.03964901093836
C           -1.52478014520357       -2.59257002075106       -0.05914286440725
H            3.75258478701181        1.19087170412677        1.03814875077321
H            3.93079038327831        1.09359714467331       -0.72980430932781
H            2.67061120877313        2.13258516853964       -0.01257499808059
H            3.59058187995298       -1.61973465385130        0.06952492582908
H           -1.68460836342029        3.13792607437874       -0.03569128175920
H           -2.87082107223956        2.17592249914915       -0.95660220410700
H           -2.91945525306791        2.16409106351484        0.80664287922149
H           -1.19346864362365       -3.13440644864911        0.82826796345611
H           -1.18531117313347       -3.11337084737003       -0.95598107343531
H           -2.60834601859240       -2.49392091837638       -0.06352950336002
H            1.89979926406709       -3.30117557832231       -0.00704747253242
25
 energy: 39.119198567560 xtb: 6.6.1 (8d0f1dd)
C            3.20365164644761        1.18467609397124        0.08599828308390
N            2.27082645755692        0.09812584793545        0.04048336647530
C            2.59688080528600       -1.25644228044250        0.04574022288926
N            1.50250274154463       -2.11880125955425        0.00938675081734
C            0.42205790308937       -1.16894895347777       -0.01027484878217
C            0.87995814493387        0.16630909054773        0.01260786615372
C            0.08690748208714        1.36064346804456       -0.00569070071726
O            0.47661927257378        2.53883791661825        0.00265593912915
N           -1.31738060822063        1.09606632648151       -0.03893052259112
C           -2.25743425172804        2.21633487841119       -0.05825524626091
C           -1.84012503061487       -0.15170687529120       -0.05569844890451
O           -3.04110965803013       -0.34855319132737       -0.08274908178546
N           -0.95619703713650       -1.27123210598561       -0.04074556318395
C           -1.53030182370447       -2.58590065915471       -0.05902228301202
H            3.76001101297107        1.18253197580039        1.02974799295578
H            3.91642206881869        1.10498829685058       -0.74039638151215
H            2.66509488547899        2.13145074693942        0.00229564013594
H            3.58943521033296       -1.61337629179996        0.07640251157854
H           -1.68934373675394        3.14591794413346       -0.03768182073718
H           -2.87575097829915        2.18343183264324       -0.95743004730459
H           -2.92328871425652        2.17260409513234        0.80571754803774
H           -1.19677448007358       -3.12727534914716        0.82745825882551
H           -1.19276861429677       -3.10636939358625       -0.95650568737565
H           -2.61378789842855       -2.48895371261948       -0.06114453279117
H            1.97610986835830       -3.35532983895109       -0.00693531897677
25
 energy: 44.883113065962 xtb: 6.6.1 (8d0f1dd)
C            3.19961153005662        1.18123913395156        0.08513079194050
N            2.26048345664152        0.09768519606588        0.04250887923907
C            2.57509728693491       -1.25512679227081        0.05187751876201
N            1.49984858981593       -2.13618431634207        0.01628513943101
C            0.41567520009013       -1.17285265890804       -0.01204128248605
C            0.86927642688887        0.16579382436199        0.01075286808778
C            0.08293895539000        1.36358719588895       -0.00527047517662
O            0.47042618170745        2.53913084190622        0.00324848623797
N           -1.32756656126442        1.11111828714355       -0.04013188917601
C           -2.26394308476221        2.22988789289425       -0.05909715750454
C           -1.84728676367080       -0.13860705975446       -0.05706880533154
O           -3.04640469690964       -0.34059626373579       -0.08377848189994
N           -0.96488820575029       -1.25509175888046       -0.04260772639227
C           -1.53761122812942       -2.57382696916652       -0.05904048222973
H            3.76472758116350        1.17206514090954        1.02159410119791
H            3.90285054597235        1.10873071974027       -0.74828525665869
H            2.66593857246682        2.13181894729317        0.01307355949027
H            3.57285295175788       -1.60309275929702        0.08153199454100
H           -1.69456958439394        3.15829779831253       -0.03902730264737
H           -2.88208643324778        2.19485397333344       -0.95823432717971
H           -2.92852681036778        2.18481968059907        0.80573216565886
H           -1.19702054468699       -3.11410359654816        0.82530181843065
H           -1.19666009922483       -3.09388885891052       -0.95536519443994
H           -2.62103529636649       -2.48525593921656       -0.05936522809298
H            2.14008669782481       -3.48137305719796       -0.01068981765435
25
 energy: 38.589978436852 xtb: 6.6.1 (8d0f1dd)
C            3.19641176700273        1.17483003191349        0.08478318657238
N            2.24332980880124        0.09691544179078        0.04445379606477
C            2.52900093894753       -1.25090973873311        0.05543978542922
N            1.47983178726639       -2.14069363482136        0.02272398517533
C            0.40051556088238       -1.16022446245504       -0.01296589439215
C            0.85591945024590        0.17681575513454        0.00866072752567
C            0.07752345305774        1.37695522046804       -0.00518251983556
O            0.46003764797905        2.54597978929007        0.00306253266850
N           -1.33469991999169        1.13005272718172       -0.04079088214214
C           -2.26915885861241        2.24370669790837       -0.05967715818254
C           -1.85428683372378       -0.12476363698496       -0.05737965176651
O           -3.05167895549437       -0.32873997825088       -0.08416691124416
N           -0.97698275162614       -1.23250737146824       -0.04310241089714
C           -1.54289853024331       -2.56008525822991       -0.05868737251909
H            3.76571180335467        1.16186987239025        1.01599979769829
H            3.89344030123479        1.10581194575238       -0.75183476310795
H            2.67155197141778        2.13160698861440        0.01909149233672
H            3.53480343442553       -1.59677535282480        0.08311097840421
H           -1.69927421406774        3.17091428864179       -0.03996696546206
H           -2.88624226213464        2.20417743281647       -0.95894530620947
H           -2.93211970397542        2.19476222773474        0.80578484905351
H           -1.19486657196726       -3.10054394509870        0.82237811043363
H           -1.19649008248398       -3.08067268006827       -0.95246182440283
H           -2.62644436305850       -2.48306873760984       -0.05827177486006
H            2.36927979069967       -3.66638502091992       -0.01502191019330
25
 energy: 25.906831895987 xtb: 6.6.1 (8d0f1dd)
C            3.19904199681426        1.16624989251191        0.08506901474928
N            2.22775583412833        0.08475105140476        0.04767153376499
C            2.43728135739422       -1.23809132723713        0.05134333426260
N            1.40171731122608       -2.05370404215054        0.02326736774611
C            0.36237836194263       -1.08043976757693       -0.00865396103841
C            0.85725991185526        0.22110981791735        0.00740347234425
C            0.06725989367662        1.41817264286741       -0.00739980153983
O            0.44834355667643        2.56108934953229        0.00260107522798
N           -1.31707769213393        1.14249031860782       -0.04020171012184
C           -2.26371358023884        2.24460712884494       -0.05913101988938
C           -1.85619125157913       -0.12966495448195       -0.05606002322778
O           -3.05158449978247       -0.31456216897965       -0.08333359029955
N           -0.98600094794438       -1.21020174289716       -0.03973547151591
C           -1.53759721363310       -2.55547968551686       -0.05795757284528
H            3.75919061117962        1.15842326247160        1.01821153397943
H            3.89834244209997        1.09171969864035       -0.74524546127617
H            2.68074659708176        2.12814599936314        0.01105714707400
H            3.46358229481288       -1.60696466101545        0.07787937140344
H           -1.70157387368870        3.17513284824874       -0.03945875251734
H           -2.88124376556113        2.20098017618228       -0.95771016803984
H           -2.92779529557031        2.19125137392336        0.80500852147324
H           -1.18846403157605       -3.09587247051416        0.82021188096960
H           -1.18753540712203       -3.07555399394859       -0.94870977720743
H           -2.62225478292968       -2.48485330101772       -0.05929463078622
H            2.63034684080785       -3.94970684300780       -0.01979841654263
25
 energy: 22.035570332739 xtb: 6.6.1 (8d0f1dd)
C            3.20408881896151        1.17061498372000        0.08437752074467
N            2.23211753313012        0.08587538395917        0.04735216858299
C            2.40296325885012       -1.23066921299508        0.05007634172223
N            1.32951770146720       -1.97323960416317        0.02044518186545
C            0.33699121303856       -1.01677382850448       -0.00729470401949
C            0.86632217864882        0.25939100190035        0.00783605544409
C            0.05495697385102        1.45199631246635       -0.00720328243033
O            0.44299275422499        2.59123485251045        0.00352656627015
N           -1.30578912141008        1.14550863505909       -0.03908854780382
C           -2.26324464508381        2.24304429282101       -0.05819620578330
C           -1.86236131158196       -0.13531053523974       -0.05516254108497
O           -3.05975253006631       -0.29343533379188       -0.08227544826205
N           -0.99705906832056       -1.20262674255446       -0.03880110982317
C           -1.53140763075555       -2.55566494898928       -0.05806966001254
H            3.75272106558419        1.16136840940749        1.02510363523953
H            3.90923015201129        1.08029377957791       -0.73911935586679
H            2.68453023782854        2.12950367205442       -0.00247273879731
H            3.42900504998503       -1.61904140683658        0.07384079466296
H           -1.70741363973798        3.17798931178990       -0.03786551834969
H           -2.87949890392299        2.19561453487515       -0.95726362177317
H           -2.92668941166333        2.18468507600457        0.80586926006457
H           -1.18040660532506       -3.09175781843397        0.82123447763129
H           -1.17685786162507       -3.07090180820850       -0.94891839602179
H           -2.61618817535186       -2.48740132346391       -0.06090505183917
H            2.77344663519938       -4.21126908079279       -0.01999192421308
25
 energy: 21.063529180474 xtb: 6.6.1 (8d0f1dd)
C            3.20714888323633        1.18056970384035        0.08448705047358
N            2.23525144672429        0.10260228961489        0.04533910055232
C            2.39737036494931       -1.22603939892063        0.04743292585945
N            1.27329547094935       -1.92255331037028        0.01633514976303
C            0.32397677053607       -0.97097762688175       -0.00550342859931
C            0.87097944918023        0.29752998360529        0.00897845303457
C            0.04185893703601        1.48196463883321       -0.00768406393430
O            0.43463145376067        2.62832070054839        0.00342187883347
N           -1.30458481971887        1.15296713073133       -0.03851606632250
C           -2.26885945591660        2.24692631816897       -0.05729050308693
C           -1.87133067004817       -0.13096265480891       -0.05454251415635
O           -3.07137720733073       -0.26986083226320       -0.08124510314050
N           -1.00858375200176       -1.19449422312519       -0.03799540421123
C           -1.52365726909895       -2.55083177007308       -0.05795813655750
H            3.74737636057322        1.16886463567224        1.03180219682094
H            3.92027814421826        1.07297167271587       -0.73175671412425
H            2.69088275619824        2.13722418821949       -0.01373309887246
H            3.40579259975847       -1.62954143563337        0.06909365683441
H           -1.71505607256785        3.18344542610880       -0.03635817402511
H           -2.88151416071249        2.19256457167835       -0.95750207120034
H           -2.92913904871405        2.18065017176890        0.80769495718864
H           -1.17106292786811       -3.08585398753395        0.82173706355840
H           -1.16470578593589       -3.06431371084311       -0.94821618965538
H           -2.60885350100153       -2.48953624464106       -0.06246151057552
H            2.88209670173077       -4.50260763423953       -0.01852555830985
25
 energy: 21.160756123319 xtb: 6.6.1 (8d0f1dd)
C            3.20729018593404        1.18760881888115        0.08446493427344
N            2.23133573651490        0.12063987999251        0.04393786784793
C            2.40520437362579       -1.21720721758936        0.04369387373615
N            1.25668804699207       -1.89529509999439        0.01401804365928
C            0.32242454394513       -0.94647304372439       -0.00483658302774
C            0.87143567484844        0.32326753284573        0.01221104654033
C            0.03528774934217        1.49893603413266       -0.00628259081724
O            0.42878994808694        2.65071027278188        0.00208109619191
N           -1.30644500218951        1.15805762751993       -0.03744390919550
C           -2.27359434821067        2.24996783336692       -0.05671135732201
C           -1.87621005817539       -0.12467585568496       -0.05381489934623
O           -3.07732341646886       -0.25884396808590       -0.08040825700544
N           -1.01238723906200       -1.18902052738100       -0.03830875059064
C           -1.51654465545747       -2.54509436978859       -0.05826153580528
H            3.74291438653570        1.17746070114373        1.03599209838309
H            3.92890138346652        1.06916646007967       -0.72501556172188
H            2.69684032767515        2.14513899633936       -0.02224026650352
H            3.39750620652735       -1.62895880003082        0.06423199821359
H           -1.71919154387204        3.18582855214280       -0.03516144117838
H           -2.88376729682182        2.19224394873001       -0.95765883654058
H           -2.93215936809404        2.17958631490464        0.80850379815280
H           -1.16538576678613       -3.08173016616715        0.82192212425786
H           -1.15693372192610       -3.06035840941150       -0.94798847886001
H           -2.60269457472319       -2.48934538159662       -0.06383104247790
H            2.91023309622923       -4.71258153123429       -0.01605947471678
25
 energy: 20.914742250792 xtb: 6.6.1 (8d0f1dd)
C            3.20811421898857        1.19389286441082        0.08480297713910
N            2.22670496827076        0.13718677756791        0.04404299784892
C            2.41803171622141       -1.20319508451566        0.04175943265819
N            1.26863359226493       -1.88237850746160        0.01137864414899
C            0.32623116180066       -0.94009685958110       -0.00488041265564
C            0.87018430842677        0.33449969179658        0.01506895297215
C            0.03404489172545        1.50443942876195       -0.00605944130896
O            0.42515122828726        2.65932880749013        0.00060426304515
N           -1.30883898557893        1.15958006207024       -0.03711178309763
C           -2.27575878603753        2.25126889892902       -0.05650344188854
C           -1.87680088023080       -0.12013484763872       -0.05340378023036
O           -3.07787974150416       -0.25856754964440       -0.07971735941447
N           -1.01080504478680       -1.18765262560109       -0.03866951288324
C           -1.51294571507846       -2.54177549131331       -0.05821163691328
H            3.74252901755992        1.18333932106630        1.03819256333758
H            3.93322975415646        1.06927486945696       -0.72206423372216
H            2.70287674887053        2.15371463248538       -0.02546360557719
H            3.40176753426274       -1.62046226422440        0.06309732823477
H           -1.72062356865376        3.18654002090545       -0.03498696667253
H           -2.88516659118902        2.19274473640777       -0.95760216420605
H           -2.93357272522839        2.17996603206498        0.80889450450491
H           -1.16370148694424       -3.08045351883958        0.82231213317957
H           -1.15448779836157       -3.05933282466188       -0.94775093265520
H           -2.59995998831432       -2.48857438564052       -0.06413513302835
H            2.87525683900871       -4.83412358211922       -0.01655949666844
25
 energy: 20.340699724808 xtb: 6.6.1 (8d0f1dd)
C            3.21063443532757        1.20241588587444        0.08494332015392
N            2.22365784886716        0.15637783907848        0.04456237007331
C            2.43522709126383       -1.18183819824432        0.04080209152653
N            1.30163045167367       -1.87367363739914        0.01033365095118
C            0.33425098698179       -0.94507432113962       -0.00496173233811
C            0.86793706459783        0.33732615401945        0.01744216078549
C            0.03625308782972        1.50388938834069       -0.00539546262972
O            0.42232822047144        2.66105867058386        0.00020177420913
N           -1.31172727293641        1.15962906445545       -0.03692154576231
C           -2.27697010538758        2.25154646622824       -0.05653898382481
C           -1.87361056926262       -0.11586649211534       -0.05341659916834
O           -3.07433798329187       -0.26476331222640       -0.07979694856188
N           -1.00462313730665       -1.18839625436197       -0.03892451177133
C           -1.51035112791125       -2.53994389634420       -0.05830347803352
H            3.74436572257679        1.18869473848293        1.03891218592217
H            3.93517260120438        1.07288007724059       -0.72187163253673
H            2.70903911275993        2.16395613923135       -0.02616327607430
H            3.41316728927908       -1.60814106964837        0.06262149593842
H           -1.72120276811077        3.18643044849507       -0.03486999819373
H           -2.88617651943005        2.19358324414017       -0.95782927059362
H           -2.93486766843283        2.18060563339637        0.80883255167051
H           -1.16306093866622       -3.08069825939234        0.82239865995412
H           -1.15355587326115       -3.05959117415791       -0.94791925043417
H           -2.59796648424834       -2.48729869444239       -0.06436583543060
H            2.78700120334874       -4.92407983792306       -0.01673783968433
25
 energy: 20.042131099689 xtb: 6.6.1 (8d0f1dd)
C            3.21312790851840        1.20861322140810        0.08545062715845
N            2.22554685477964        0.16519825964332        0.04494519982708
C            2.44365282656151       -1.16819765448314        0.04187931741524
N            1.32885892282771       -1.87328633981365        0.01034709173172
C            0.34058923140612       -0.95570038462872       -0.00543147340469
C            0.86642303086413        0.33149356373805        0.01646173972375
C            0.03949677427012        1.49951167425654       -0.00603564235109
O            0.42164737430430        2.65678899425819       -0.00001617806225
N           -1.31317166160207        1.15900554877744       -0.03731486395839
C           -2.27685462452663        2.25098004758378       -0.05666228899799
C           -1.86921209613198       -0.11481935205090       -0.05341768064984
O           -3.06965469902815       -0.27178899112630       -0.07963029781948
N           -0.99850177968344       -1.18977150746058       -0.03881857607886
C           -1.51016280827145       -2.54056897473335       -0.05812088970641
H            3.74660527844450        1.19085863212871        1.03856182517221
H            3.93433501217164        1.07763914681544       -0.72289084320240
H            2.71172353376362        2.17012518629386       -0.02399832524425
H            3.42134372384175       -1.60107535837446        0.06391942282335
H           -1.72077919162061        3.18583531833190       -0.03528274094014
H           -2.88675372546416        2.19385672478035       -0.95777730715900
H           -2.93489831364758        2.18117066222902        0.80894065647815
H           -1.16323529029758       -3.08161773008820        0.82244967175611
H           -1.15446804230383       -3.06056907218906       -0.94793718287101
H           -2.59758411206992       -2.48623751432459       -0.06381683368307
H            2.71414054083017       -4.93841549879972       -0.01877053180991
25
 energy: 19.984677094032 xtb: 6.6.1 (8d0f1dd)
C            3.21383058025961        1.21028782005524        0.08524178300377
N            2.22814196886446        0.16499118396392        0.04503527499025
C            2.44384677547588       -1.16552769088922        0.04300928093804
N            1.33643717644561       -1.87585480632872        0.01206602967421
C            0.34235172748191       -0.96101692955170       -0.00523551133638
C            0.86583990958628        0.32684216269634        0.01535621424960
C            0.04086610570786        1.49710787572984       -0.00557349613935
O            0.42219510436190        2.65374355420161        0.00106331055875
N           -1.31330611681876        1.15895145207282       -0.03730299281107
C           -2.27646739564538        2.25071512371552       -0.05678971006285
C           -1.86751490113532       -0.11542274681305       -0.05357524044949
O           -3.06793354785622       -0.27382262571260       -0.08013839830419
N           -0.99658387853835       -1.18995789206588       -0.03853121408278
C           -1.51084408170108       -2.54148218080761       -0.05821196675717
H            3.74769371857374        1.19063430680996        1.03743231004782
H            3.93287774516294        1.07943655924743       -0.72440240559287
H            2.71084903377629        2.17068835980425       -0.02289872465411
H            3.42318847060561       -1.59940495533739        0.06414763454453
H           -1.72042541486342        3.18567061843285       -0.03520443753550
H           -2.88633747247604        2.19395634791748       -0.95806635550587
H           -2.93495671269704        2.18123970376552        0.80862133104545
H           -1.16361573513273       -3.08197449326805        0.82221768723897
H           -1.15478494652956       -3.06069140624416       -0.94809082610623
H           -2.59791734263808       -2.48614335786520       -0.06399784372401
H            2.69478389766607       -4.92393738135716       -0.01913783708223
25
 energy: 19.974868245911 xtb: 6.6.1 (8d0f1dd)
C            3.21393971929840        1.21045864663948        0.08552346854087
N            2.22924637346800        0.16399739295688        0.04489459734040
C            2.44299975149812       -1.16558935074837        0.04347809451558
N            1.33664976838360       -1.87674763139709        0.01228936162750
C            0.34242585026815       -0.96191337234016       -0.00550488240110
C            0.86558065723254        0.32567290631923        0.01426101393282
C            0.04102745340447        1.49670980282292       -0.00625707238065
O            0.42247967891914        2.65305750457987        0.00063609041213
N           -1.31322388094025        1.15904537835456       -0.03755839205442
C           -2.27635375424726        2.25061072100810       -0.05675299142141
C           -1.86731929126048       -0.11599963947130       -0.05349758947546
O           -3.06776989234129       -0.27382515731349       -0.07980381289518
N           -0.99651554711737       -1.18970291280768       -0.03847685485939
C           -1.51119593784134       -2.54185286779495       -0.05805593356328
H            3.74764603579160        1.19028609506061        1.03757995464626
H            3.93290300310475        1.07982829906337       -0.72408688956837
H            2.71046505502225        2.17041655469369       -0.02233975131647
H            3.42312681171328       -1.59923021073800        0.06471226399510
H           -1.72032033541277        3.18559546067514       -0.03542061647955
H           -2.88655911706712        2.19383744936802       -0.95781838587059
H           -2.93460943373044        2.18128781651017        0.80886472967457
H           -1.16354815006377       -3.08192442099736        0.82231365530908
H           -1.15515237280876       -3.06072342657595       -0.94798073713551
H           -2.59811112331975       -2.48618083492181       -0.06360586722952
H            2.69440334598255       -4.91808560077383       -0.02035955719609
25
 energy: 19.971614934386 xtb: 6.6.1 (8d0f1dd)
C            3.21388442714754        1.21047459459044        0.08507325037300
N            2.22972207632418        0.16346751257137        0.04484532828962
C            2.44251650594002       -1.16570496814072        0.04381570014719
N            1.33614930370199       -1.87695971911427        0.01350540207640
C            0.34238369929120       -0.96185254072511       -0.00511644240053
C            0.86533138156706        0.32553402298048        0.01437060599110
C            0.04096761061117        1.49682729535288       -0.00542469335553
O            0.42263320020262        2.65305413300904        0.00157438983485
N           -1.31314997070046        1.15921802605593       -0.03727484408107
C           -2.27631574832434        2.25061187891840       -0.05681691270425
C           -1.86733953407816       -0.11639078921450       -0.05353737223829
O           -3.06783056326016       -0.27344830328972       -0.08027111329893
N           -0.99665875658437       -1.18940537933038       -0.03826759493871
C           -1.51123480358889       -2.54201367538380       -0.05822865758814
H            3.74801928305435        1.19032005637946        1.03690183023269
H            3.93260604669908        1.07983428317100       -0.72488601232179
H            2.71004576006033        2.17014309960992       -0.02261467855520
H            3.42289068780894       -1.59927407160963        0.06452785270101
H           -1.72036635244835        3.18564702678307       -0.03517178257597
H           -2.88613070578362        2.19390762473172       -0.95815160983872
H           -2.93496945474619        2.18122043690009        0.80848833886346
H           -1.16365790630374       -3.08194790728483        0.82214002212722
H           -1.15475616162302       -3.06050103638590       -0.94814446997711
H           -2.59808510189245       -2.48629579025955       -0.06407777145556
H            2.69555974486149       -4.91743720814338       -0.02022486915945
