  72
        -99.33715193
 N         -1.8820346703        2.6192499447        2.5348070589
 C         -1.7897247652        2.0837511186        1.4097565164
 C         -2.9107003268        2.0068786675        0.4078785080
 C         -3.4327646699        0.5828381441        0.3457747377
 C         -4.5126834581        0.2969422131       -0.6562731562
 C         -5.1116249253       -1.0697131611       -0.5399108998
 O         -6.2176737390       -1.3745352390       -1.1992604109
 C         -6.8467913688       -0.6033532066       -2.0391201601
 C         -4.5555921649       -2.0603026852        0.3026311988
 O         -5.1384557990       -3.2764976696        0.2250934981
 C         -4.6867422473       -4.3037290785        1.0799196040
 C         -3.4968941216       -1.7267284187        1.1252080402
 C         -2.9939935010       -0.4025579042        1.1623558548
 C         -2.2992690010        2.4057847413       -0.9619640255
 C         -1.3602401490        1.3514106664       -1.5752894462
 C         -0.0492482803        1.2387387820       -0.8938695823
 N          0.5657415026        0.0915791631       -0.6067866895
 C          1.9564691413        0.0835060903       -0.2220079236
 C          2.8700882480       -0.2892220811       -1.4060111531
 C          4.3103899161       -0.2082203540       -0.9863160205
 C          5.0125189340        0.9795885391       -1.1010752043
 C          6.3328187222        1.0662340576       -0.6869236617
 C          6.9758560833       -0.0359052071       -0.1433878121
 O          8.2510526738       -0.0665308803        0.2900740776
 C          9.0372921032        1.0979562612        0.1874327133
 C          6.2622960923       -1.2590633597       -0.0188210922
 O          6.9635752410       -2.2806289968        0.5153810371
 C          6.3496651845       -3.5395890967        0.6501646132
 C          4.9433555528       -1.3215081286       -0.4380335763
 C         -0.0758875059       -1.1883588764       -0.7847443772
 C         -4.0897063075        2.9712292681        0.7520906772
 C         -4.8244928071        2.5235110044        2.0138316900
 C         -3.6599803031        4.4279875102        0.8965170546
 H         -4.1396958150        0.4481837925       -1.6817894360
 H         -5.3194565768        1.0338247281       -0.5234460745
 H         -7.7875617517       -0.9863500018       -2.4077065872
 H         -6.4805644814        0.3704142025       -2.3356192146
 H         -4.8072620180       -4.0298990824        2.1318762512
 H         -5.3124176714       -5.1653628516        0.8566037442
 H         -3.6400196254       -4.5562658554        0.8840344303
 H         -3.0662640606       -2.4533017944        1.7918968097
 H         -2.2371020203       -0.1906053382        1.9033318844
 H         -3.1107580827        2.5917240513       -1.6657437390
 H         -1.7495397693        3.3396030785       -0.8414705362
 H         -1.8593405197        0.3856118396       -1.6166168623
 H         -1.1642683275        1.6706019927       -2.6080128824
 H         -0.8575635047        1.6378085538        1.0105279061
 H          0.5353950484        2.1391367444       -0.7802071684
 H          2.1018823522       -0.6341697408        0.5899117710
 H          2.2369073875        1.0734128181        0.1432024664
 H          2.6808678116        0.4062858592       -2.2255474039
 H          2.6331279649       -1.2979640385       -1.7463995746
 H          4.5370805000        1.8494921502       -1.5283258333
 H          6.8556794652        2.0019492188       -0.7970928923
 H          8.6171555636        1.9185431389        0.7771207683
 H          9.1488625258        1.4154586486       -0.8537157769
 H         10.0121871558        0.8280797155        0.5886817581
 H          7.1091535612       -4.1904840196        1.0788845687
 H          5.4886404325       -3.4967274346        1.3252071881
 H          6.0360945904       -3.9396558441       -0.3192097253
 H          4.3948229870       -2.2467942611       -0.3548426894
 H         -0.2071241550       -1.4247407056       -1.8434937995
 H         -1.0535729719       -1.1953263250       -0.2975479068
 H          0.5400358444       -1.9615165648       -0.3323071547
 H         -4.7881153180        2.9287695657       -0.0917960429
 H         -4.1654878686        2.6076646789        2.8712317260
 H         -5.1629411598        1.4929781080        1.9369343530
 H         -5.6912691049        3.1588351771        2.1769644080
 H         -2.9422258481        4.5364516033        1.7028741927
 H         -3.2314702984        4.8166053990       -0.0234145463
 H         -4.5328103769        5.0300402250        1.1361107637
 H         -1.0516110609        2.6331036991        3.1188633567
