25
 energy: -42.479354766288 xtb: 6.6.1 (8d0f1dd)
C            3.08892911599168        1.02640178148189        0.10965640195170
N            2.30282029072864       -0.02852683314856        0.02335294272263
C            2.56360160756650       -1.36133488135968       -0.00665378128869
N            1.35784650194524       -2.06161094078698       -0.02883751189484
C            0.35972559371588       -1.16926357368634       -0.03368261086791
C            0.91018418473653        0.10159606445106       -0.02187118589617
C            0.12446569760408        1.28937718049918        0.02880530343895
O            0.50605318494274        2.44233296223795        0.06826716300647
N           -1.24884662788162        0.97956443500973        0.01498812306846
C           -2.17222622619762        2.10337782895705        0.04567194964745
C           -1.83034908209735       -0.25907495320301       -0.03410622430282
O           -3.03035465338457       -0.40892003424258       -0.06162539045298
N           -0.98187085727112       -1.37085180401111       -0.03988180953859
C           -1.55983401044056       -2.69444956250412       -0.08488728480841
H            2.60598023349048        1.96740804810599        0.36694608140834
H            4.06580940079290        0.85155222930099        0.49740430373256
H            4.27422018974660        3.33257625334069       -0.60662076058653
H            3.52661116232521       -1.81596445948876        0.07891344998434
H           -1.56149605337725        3.00037725986964        0.08897440089661
H           -2.78853677647625        2.10347967605146       -0.85161505819463
H           -2.81747024994197        2.03327510083120        0.92023553849891
H           -1.27441428270755       -3.27895602853980        0.79142273363871
H           -1.26750648921436       -3.21816708649804       -0.99590578147212
H           -2.64173858899228       -2.57247790673218       -0.08776825856105
H            1.27438925282195       -3.06126304538716       -0.03665241447996
