72
 energy: -99.643899636786 xtb: 6.6.1 (8d0f1dd)
N           -1.70948765300257        3.17246274113973        2.13257306210904
C           -1.81060351075667        2.51638131715604        1.06262350319125
C           -3.04701756885764        2.32132762216539        0.23212910391148
C           -3.50306395991914        0.86958623699517        0.28724516506795
C           -4.47294468893487        0.42138464212863       -0.61023979145728
C           -4.90506637564488       -0.88833739877070       -0.60911122183614
O           -5.85312493743435       -1.41534913104642       -1.44023198684510
C           -6.50517085791234       -0.56093658972467       -2.33785543242947
C           -4.34918506349860       -1.79554164824583        0.31645614393093
O           -4.83346778712205       -3.07075351140072        0.24828369905652
C           -4.40574311170583       -3.98928442439631        1.22184478515818
C           -3.38904878942786       -1.34736039068373        1.20224386078794
C           -2.97277150896881       -0.02387892816571        1.19018657664963
C           -2.73442355288783        2.58831358556093       -1.21467062053802
C           -1.19632085398096        0.79245156226154       -1.56047620607022
C            0.08327768781321        0.76456761487197       -1.02734607513753
N            0.72568257731999       -0.30190250799760       -0.46170567021931
C            2.12274278297540       -0.24668094686564       -0.13380243102584
C            3.07088548936179       -0.76236473740569       -1.24055035638516
C            4.50489656467715       -0.61164995858772       -0.82057861366589
C            5.18962617760867        0.56969420368893       -1.04133747948535
C            6.50119819124161        0.72313682347124       -0.61121432076773
C            7.15064383397380       -0.30411991517896        0.05072028883372
O            8.43071090529190       -0.26373340906683        0.51411676942406
C            9.18760140292781        0.89716480479393        0.28662425202823
C            6.45904003849026       -1.51212382105446        0.28876655676626
O            7.17426465571999       -2.46684177845081        0.94703769339322
C            6.57669187998289       -3.71322767880167        1.18903097966030
C            5.15178301761208       -1.64482853065610       -0.14432162950517
C            0.08727769852949       -1.58538048832620       -0.47876296969777
C           -4.22037128021563        3.19955655061919        0.71265129421474
C           -4.64210779690321        2.78994240781546        2.11783519935793
C           -3.86530998126027        4.67992654989581        0.69810472914235
H           -4.88561740553757        1.11010946166833       -1.32782105431048
H           -7.01813112904250        0.25533193586709       -1.81760342295941
H           -7.23943549674616       -1.18380679580889       -2.84484754394464
H           -5.81470868550493       -0.14179337615431       -3.07755930059280
H           -4.62464824223929       -3.64203164900687        2.23898404968782
H           -4.95805927062443       -4.90689543655763        1.02667815856816
H           -3.33422936331895       -4.19526195347108        1.13822272682402
H           -2.94717952754646       -2.01657823960056        1.92232988132070
H           -2.21931571394350        0.29777431743513        1.89100249430356
H           -3.61547103714595        2.69440128726954       -1.85025358077547
H           -2.00732257431518        3.35773226353663       -1.42193071541307
H           -1.78602792026494       -0.10878609279095       -1.50526801889389
H           -1.25375839116048        1.27709189808525       -2.52591499046449
H           -0.95675058703190        2.01319523526880        0.60590501790264
H            0.73258723223104        1.66266992867769       -1.16637487122062
H            2.29616932342964       -0.83809849850238        0.77310272027500
H            2.39091861420326        0.78684684873979        0.08544542409858
H            2.88539359871735       -0.18968806365221       -2.14973762866940
H            2.84193326537488       -1.81066780694056       -1.43450172565296
H            4.70468182142420        1.38483620208157       -1.55738310955045
H            7.01105217810980        1.65376309362834       -0.80446727349319
H            8.74648049538666        1.76858732911180        0.78057159907901
H            9.30277539725786        1.10661394230401       -0.78295025667209
H           10.16519757670235        0.69944044090533        0.72133141775645
H            7.33568009359421       -4.31158017687662        1.69241126915999
H            5.70224379355678       -3.62057011723947        1.84072984437916
H            6.28622287366084       -4.21154990465227        0.25799716705527
H            4.61408006779237       -2.56346378499798        0.03401692101735
H           -0.02706391750775       -1.97654499380754       -1.49989909249153
H           -0.90287437727433       -1.50661837548229       -0.02906625113872
H            0.68953271167737       -2.27448885604634        0.10810412307134
H           -5.05060263458978        3.02361565087332        0.01976889856789
H           -3.83249505249459        2.97435782090881        2.81933881398527
H           -4.90936948392689        1.73632631167831        2.14823201308867
H           -5.49813559866452        3.38641363506155        2.41640309904225
H           -3.03817357123585        4.86285819613175        1.37571899535502
H           -3.59926261547850        5.01921434571314       -0.29915825259912
H           -4.72168446662130        5.25223284141229        1.03981251918633
H           -0.76480668052269        3.21100724805724        2.50960664816240
