25
 energy: -42.158573528432 gnorm: 0.004975919621 xtb: 6.6.1 (8d0f1dd)
C            3.08249296718947        1.13868909212879       -0.26811903764160
N            2.13733813147244        0.07125047124251       -0.09347533920663
C            2.42917223904690       -1.19121087749700        0.13498000110907
N            1.31270426532186       -1.92140098912979        0.24854846975775
C            0.18404491159158       -1.09275428183003        0.08913151018196
C            0.74787862328655        0.21211688249420       -0.15065018883003
C            0.13922322069723        1.44253046521952       -0.37706311641701
O            0.56849380760769        2.55255204094194       -0.51411955625105
N           -1.42442846622109        1.30469560208077       -0.45890433929808
C           -2.13192176610207        1.74082112286734        0.73467644824978
C           -1.90702960319683        0.97823074816794       -1.55291113862232
O           -2.20288720649506        0.63373240714646       -2.60401784290694
N           -1.04625506248637       -1.40173902611673        0.16363940640649
C           -1.51447751186822       -2.72807034776670        0.42674863135631
H            2.97748011470676        1.86939064284045        0.53462343528637
H            4.09130578759548        0.73407407515261       -0.26467460572554
H            2.89705700804651        1.65393605310406       -1.21084172154260
H            3.42688579882976       -1.58155221327977        0.21505480248839
H           -1.76914685766407        2.72987482221593        1.01415093092639
H           -3.20241102066277        1.78331221562089        0.54787567375355
H           -1.92949873050570        1.03039981829030        1.53712328836434
H           -0.96500638643705       -3.24114652346605        1.22565485914622
H           -1.45962713738371       -3.33695252651661       -0.48003370605486
H           -2.56109060784457       -2.64828443836570        0.71568092534358
H            1.28013499558366       -2.91425669394414        0.41809382803200
