25
 energy: 6.116485214869 xtb: 6.6.1 (8d0f1dd)
C            3.26220916859924        1.17268686417837        0.09294943261062
N            2.29270757586841        0.11333080265102        0.05551715209439
C            2.59316474516596       -1.24071082282874        0.07668157954264
N            1.39714542873361       -1.93630496707924        0.03041908534312
C            0.34078413691726       -1.06950410104957       -0.01034745910174
C            0.88902291416508        0.20328043753334        0.02149235952062
C            0.05396016054348        1.32855066081934       -0.05575837057994
O            0.45356769949684        2.49636484442709       -0.05136995900100
N           -1.39644700000540        1.02262400504229       -0.12313354023931
C           -2.22277484649732        2.19642272641067        0.02339379245572
C           -2.01542021251001       -0.17548948703220       -0.35314073198982
O           -3.18920062676734       -0.40539751059708       -0.47595543882930
N           -1.03218007053619       -1.27376151559619       -0.10467344509265
C           -1.44437394260183       -2.66047341210143       -0.03912828313533
H            3.76270952439693        1.21883638119630        1.06675616129700
H            4.03579180970737        1.02954742562144       -0.67166388071303
H            2.73729188225566        2.10983998964562       -0.08082671230843
H            3.58880794082778       -1.64055736975137        0.05205778462767
H           -1.62725699676483        3.09015230324453       -0.20530837963242
H           -3.03729754309721        2.04622188575834       -0.66985646044721
H           -2.65698059184348        2.26085005347786        1.02679628609389
H           -1.06643129991537       -3.17725562299113        0.85443816981185
H           -1.10342973661726       -3.20521189957912       -0.92520091845556
H           -2.52831843179466       -2.65495105096819       -0.01472134222906
H            1.39942477502454       -2.94314095592722        0.04153160478518
