25
 energy: 102.762904168507 xtb: 6.6.1 (8d0f1dd)
C            3.32824858906756        1.16204183985454        0.08557369468565
N            2.38271997693611        0.07383869934951        0.05537612680141
C            2.71703947379964       -1.21108196697387        0.04743335375990
N            1.59951413910314       -1.96358898305553        0.05433925246707
C            0.46410810211175       -1.11379905836210        0.06356477182952
C            1.02248600818513        0.19574308832449        0.07384684256376
C            0.26275736145677        1.45990743651838        0.06025835392738
O            0.82323581693698        2.56190784435590       -0.06198885350861
N           -1.02418111589080        1.24271522023809        0.26365899915346
C           -2.02163242672600        2.23629140594272        0.17942509262106
C           -4.24079926211328        0.37842426597013       -1.10761853762107
O           -4.11918824570587       -0.73964241697019       -0.98592310225007
N           -0.77497491464344       -1.42156800497041        0.03898856692078
C           -1.27569482144823       -2.75636455264857        0.05042717445384
H            3.82206935763568        1.20316627922180        1.05814954321622
H            4.08115255249020        1.02362179564671       -0.68995147041602
H            2.77845220767664        2.09378641538527       -0.07802916340177
H            3.72251199290766       -1.58307684177636        0.03062857050329
H           -1.71164677348933        3.13789896094740       -0.35715160139792
H           -2.88943363691169        1.78685455332663       -0.33321994106362
H           -2.36192790684383        2.50174371138128        1.18856104173347
H           -0.92660965794849       -3.34509330154111        0.90648649691953
H           -1.01708395880788       -3.29896992048690       -0.86744649479284
H           -2.35874791649382       -2.68051541470225        0.10540132638915
H            1.58440916430857       -2.96978799668021        0.03659523070685
