25
 energy: 102.935962686030 xtb: 6.6.1 (8d0f1dd)
C            3.32914863759226        1.16180672630731        0.08679181421948
N            2.37981630805452        0.07604794897716        0.05996346220999
C            2.71808399551302       -1.20674179510956        0.04618189415610
N            1.60621256472262       -1.96571766060888        0.05314546728113
C            0.46887472933375       -1.11973379124812        0.06602845992013
C            1.01966158369884        0.19511342504582        0.07717607365924
C            0.26530541099687        1.45843409657974        0.06306800778931
O            0.82283463517718        2.56261505856385       -0.05253109919771
N           -1.02736301842531        1.24574810521911        0.21914479598854
C           -2.02443335091155        2.23771013915576        0.17327992326090
C           -4.23731297145541        0.38187449468087       -1.08390627017093
O           -4.08100988598287       -0.73508006995826       -0.99531911568912
N           -0.76605029835602       -1.43065916491907        0.04941846454785
C           -1.28191070939262       -2.75884107823900        0.05253912139499
H            3.82456858355652        1.20357184320395        1.05823758891501
H            4.08113309663476        1.02195572291803       -0.68949795092357
H            2.78611178276930        2.09584719787824       -0.07765166551820
H            3.72257714398221       -1.57936164526413        0.03045583020671
H           -1.71745939517537        3.14840475620794       -0.35635941902205
H           -2.90375546309772        1.79562791839714       -0.32760310618001
H           -2.33479079404882        2.49713730497541        1.19324870823106
H           -0.93815710918341       -3.35142482900035        0.90941788939432
H           -1.02377338700019       -3.29832880760054       -0.86734971612748
H           -2.36796006119700       -2.67560047575528        0.10377625391503
H            1.59186227716692       -2.97137663166289        0.03537849993425
