25
 energy: 106.746894845355 xtb: 6.6.1 (8d0f1dd)
C            3.31314309461312        1.15668777976572        0.09828955863137
N            2.35905445228538        0.07228616203451        0.07247844344009
C            2.70190573120163       -1.20226352798800        0.05899196114785
N            1.60479240450251       -1.97172087341336        0.06514289725654
C            0.45201326786701       -1.14033639822997        0.07778953661389
C            0.99040713528445        0.18624779051363        0.08800615110244
C            0.20711951696837        1.41491818716550        0.05660095381778
O            0.73228833032673        2.53286331232560       -0.07236199354466
N           -1.11288284670640        1.14094040984337        0.17650649593945
C           -2.03217200988004        2.22535282114777        0.17617406045870
C           -3.83604386710391        0.47554898157489       -1.29730143103337
O           -4.15520169865375       -0.56262174282971       -0.98196790741583
N           -0.77317090171771       -1.47282538816269        0.09591239178808
C           -1.27790147030076       -2.80418100900226        0.05046148619598
H            3.80706573325449        1.20676682753680        1.07263828731037
H            4.07165719328548        1.02610969674682       -0.67592753400888
H            2.77929425273833        2.09411701718419       -0.06885485089871
H            3.72043058906753       -1.54560229870650        0.06273894230222
H           -1.68508308805514        3.11633492623158       -0.38337235282726
H           -3.00028501924464        1.94538864666057       -0.29402793281896
H           -2.17486733288749        2.50622186463104        1.23132917522049
H           -0.94390111084532       -3.39636050874634        0.90782721082428
H           -1.00776839005434       -3.34395537973138       -0.86519209580730
H           -2.35946436548646       -2.70761149186449        0.08942491605039
H            1.61917940371228       -2.97714132276123        0.05376759064305
