25
 energy: 103.766106405090 xtb: 6.6.1 (8d0f1dd)
C            3.31964575075851        1.16515320676512        0.08679162505538
N            2.36634267756928        0.08279030980948        0.07029157632923
C            2.70814778483234       -1.19516339742980        0.05475195743837
N            1.60563907094682       -1.96684736315000        0.05082766731333
C            0.45903713966006       -1.12032954654781        0.07070864074961
C            1.00849934738586        0.19783765607513        0.08287678676779
C            0.24531992622724        1.44548425979057        0.06371312101280
O            0.78617406775063        2.55590890163306       -0.07299667057286
N           -1.04793573672202        1.18010929739370        0.23525047590003
C           -2.01556000564643        2.21311695777351        0.20450470295901
C           -4.10545816642212        0.41291638266284       -1.24692494723037
O           -4.22159327993585       -0.68172360759659       -0.98113533591207
N           -0.76274696129121       -1.44794511476252        0.09664953396278
C           -1.26844473487460       -2.78522295297282        0.06391568642166
H            3.81539447191169        1.21013222105756        1.05755542715426
H            4.07134518670311        1.01634014301287       -0.69010229947814
H            2.78074342850498        2.09603908885038       -0.08547462757642
H            3.71623724948079       -1.56027687684385        0.04988525112406
H           -1.65638052649575        3.11595070723937       -0.31139229811718
H           -2.90483666263853        1.81390653870809       -0.32547838623637
H           -2.31652582519173        2.48752238634690        1.23779263418156
H           -0.93452131717930       -3.39199409273447        0.91407728952425
H           -1.00892028152940       -3.31566290381522       -0.85940169458608
H           -2.35456186533400       -2.71666378121442        0.11789324018202
H            1.60161735485269       -2.97327657581984        0.04343917960722
