  25
        -42.09019257
 C          3.2143368340        1.1311461989        0.0200754218
 N          2.2642177233        0.0541524230       -0.0015318389
 C          2.5599408339       -1.2489454818       -0.0143768147
 N          1.3933932687       -1.9345288336       -0.0122509719
 C          0.3463229287       -1.0602005021        0.0011170636
 C          0.8969372864        0.2160420894        0.0088821936
 C          0.0714753847        1.4012689233        0.0018500115
 O          0.4605012919        2.5456959950       -0.0058738263
 N         -1.2867577545        1.0725322833       -0.0023402115
 C         -2.2404358022        2.1713221834       -0.0125494166
 C         -1.8546626643       -0.1899366471        0.0047334149
 O         -3.0443991888       -0.3529104425        0.0091967731
 N         -0.9783979921       -1.2910967344        0.0040189486
 C         -1.5305996299       -2.6289352360        0.0057753737
 H          3.6886539839        1.1948383958        1.0015340237
 H          3.9893421237        0.9573760462       -0.7257942003
 H          2.7002885224        2.0694567679       -0.1848594679
 H          4.9970146219       -2.8806649437       -0.1128799186
 H         -1.6840234814        3.1062513718       -0.0062615755
 H         -2.8679938285        2.1099207980       -0.9026260615
 H         -2.8877974703        2.1084791468        0.8630308279
 H         -1.2062316375       -3.1723471809        0.8942028015
 H         -1.2236462186       -3.1686980208       -0.8911133132
 H         -2.6163130853       -2.5403009099        0.0161077708
 H          1.3387618480       -2.9421607402       -0.0206708166
