72
 energy: -99.549310074912 xtb: 6.6.1 (8d0f1dd)
N           -1.60752692567496        2.96543425374665        2.15194170881497
C           -1.70979616941465        2.23619641742058        1.13910174136964
C           -2.95585865806433        2.11356187860359        0.30523295438875
C           -3.46994881045994        0.68412033206390        0.36275375529048
C           -4.46135295516145        0.26144746130798       -0.52317864240341
C           -4.98030685123651       -1.01726895910998       -0.46602428233001
O           -5.95044371313891       -1.50144869551265       -1.28811014749936
C           -6.55445889119838       -0.62219100761521       -2.20141312104187
C           -4.50058916701803       -1.92598901235831        0.50201476053046
O           -5.06690048306553       -3.16292522291694        0.47653315044214
C           -4.72714075609628       -4.07984644209079        1.48654307520237
C           -3.51959031612701       -1.50600851371436        1.37939312383573
C           -3.01466999657009       -0.21384698422429        1.30948338328991
C           -2.51980402701581        2.47838486107578       -1.14000507631548
C           -1.64416294453161        1.42064134825506       -1.85335064725183
C           -0.24036764077980        1.35383954256302       -1.34606973821060
N            0.48136421228234        0.26199427231393       -1.16276097338991
C            1.96546228598251        0.32478710513917       -1.02548531668584
C            2.66748535480580       -0.01869037745734       -2.28191940097701
C            4.77245276459136       -1.06706269437096       -0.42896207504172
C            5.36881817091075        0.12330438502135       -0.77379922747108
C            6.67334452395524        0.40298845206708       -0.38920083793176
C            7.38446347352657       -0.53789254459540        0.31451286854142
O            8.69049347567036       -0.39249847634770        0.70767068336752
C            9.35852301498447        0.78619226383117        0.33944860420546
C            6.76932091426980       -1.75116859203394        0.68421110134299
O            7.56937680636522       -2.57643380502668        1.41840983768078
C            7.09534310589571       -3.82599306947939        1.81885860154798
C            5.45683316675771       -2.00857103505195        0.30775602204599
C           -0.10578054594186       -1.06099280274300       -1.27380467374019
C           -4.11471988436597        3.04535037547402        0.76239736591463
C           -4.59240902318166        2.68073736319841        2.16393734881601
C           -3.73996325560320        4.52518032720693        0.71023656804615
H           -4.83676893122057        0.95214306143188       -1.25930058659770
H           -7.00716727740920        0.23735399423388       -1.69510708498890
H           -7.33703440524630       -1.20210642035757       -2.68686051494240
H           -5.84283089901292       -0.27062740914213       -2.95784882682147
H           -4.93968793259628       -3.67331272843097        2.48093464624495
H           -5.35514636086997       -4.95106596576293        1.30753449408832
H           -3.67519006572753       -4.37700085255284        1.43189769934135
H           -3.13524093059023       -2.17433908554398        2.13245620876151
H           -2.26307666404041        0.08524427019428        2.02317481175784
H           -3.42302805276548        2.63903833132439       -1.73159003647980
H           -1.99268603797702        3.43356380627030       -1.10924376296190
H           -2.13812413958904        0.45197996177404       -1.78091498924033
H           -1.61565224282634        1.69195173338605       -2.91894944651003
H           -0.88688745223917        1.62541566269122        0.74421231279571
H            0.22099497187494        2.32486855978261       -1.26687553834461
H            2.18562433138519       -0.31857438266202       -0.17909710346497
H            2.19489318702764        1.34197473473863       -0.72234343778400
H            2.68486946888529        0.72776759804501       -3.08854491264435
H            2.64584792146115       -1.05352009124710       -2.60069801288466
H            4.85680205910669        0.87016634665561       -1.33928365171983
H            7.12697330856183        1.33686612351080       -0.67111660117412
H            8.88594088081268        1.67871828955188        0.77206851226891
H            9.41506497998494        0.90237897344506       -0.74974910260261
H           10.36842710383977        0.68739220334955        0.73522325403682
H            7.95802984599097       -4.26908034309946        2.31406275607075
H            6.26386733864772       -3.74804910666913        2.53058984025377
H            6.79805126732113       -4.46343555123734        0.97765830399097
H            4.99752420168449       -2.93513363360685        0.60825560989530
H           -0.38339555595073       -1.29423512012330       -2.30059386747644
H           -1.00501044732749       -1.12977815752049       -0.65994034730777
H            0.60899614917021       -1.81384415550417       -0.95349524951994
H           -4.95211722978800        2.87613067649198        0.07357931770785
H           -3.79181359882701        2.84974567900533        2.87541672953494
H           -4.89670401091812        1.63795402481580        2.21023648890254
H           -5.44201491693386        3.30227610992745        2.43378197454906
H           -2.89268760329179        4.71203898104250        1.36155262030224
H           -3.49327275268507        4.84593510816565       -0.29941638599983
H           -4.57728005301415        5.12429612358371        1.05798445813819
H           -0.69040780493678        2.99360515829345        2.57791879252631
