  72
        -99.30975210
 N         -1.3263942079        1.2211057473        2.1038342379
 C         -1.5257714699        1.8756370460        1.0498153910
 C         -2.8155427391        1.7678439068        0.2883875028
 C         -3.5931941584        0.4904113723        0.7397294561
 C         -4.9670175266        0.3924857268        0.1577187410
 C         -5.5263509196       -0.7868805051       -0.2154244971
 O         -6.7739124254       -0.9513108161       -0.7156532209
 C         -7.6032715142        0.1767867793       -0.8632670275
 C         -4.7853138597       -2.0174303898       -0.1050026054
 O         -5.4558503901       -3.1236820294       -0.4165785526
 C         -4.8322520779       -4.3830629413       -0.2965102248
 C         -3.4320215573       -1.9475599933        0.2794841053
 C         -2.8495782848       -0.7704302384        0.6166244693
 C         -2.5340421149        1.6988772775       -1.2237554077
 C         -1.5162564338        0.6144072443       -1.6194685594
 C         -0.1617705785        0.8745134471       -1.0834461000
 N          0.5329031096        0.0665121903       -0.3020858969
 C          1.9220781844        0.3433591540       -0.0162134862
 C          2.8331028534       -0.4611413742       -0.9636017840
 C          4.2892320768       -0.2357017909       -0.6654582426
 C          4.8949238380        0.9736032594       -0.9679425536
 C          6.2428436766        1.1757075299       -0.7157883274
 C          7.0171812007        0.1670690083       -0.1606950195
 O          8.3350105458        0.2437713713        0.1063690335
 C          9.0369378353        1.4181837622       -0.2294227490
 C          6.4042556844       -1.0750046243        0.1586085423
 O          7.2284975537       -2.0027958449        0.6859826526
 C          6.7257928670       -3.2846610358        0.9784269719
 C          5.0522129511       -1.2496338165       -0.0922067073
 C         -0.0113470021       -1.1549797154        0.2115961677
 C         -3.6385693615        3.0639758402        0.5995036492
 C         -4.2313316028        3.0575442481        2.0099629571
 C         -2.8232054745        4.3525383882        0.4448512785
 H         -5.5383419048        1.3013984640        0.0838227010
 H         -7.7995417827        0.6591088838        0.0991266507
 H         -8.5373264241       -0.2000587237       -1.2748360634
 H         -7.1702494354        0.9046856800       -1.5568864007
 H         -4.4690677655       -4.5517162138        0.7211843388
 H         -5.6015413905       -5.1153333328       -0.5336425761
 H         -4.0041456386       -4.4865579048       -1.0039171445
 H         -2.8452618943       -2.8554497278        0.2831476238
 H         -3.6881767887        0.6236586066        1.8320372130
 H         -3.4718566959        1.4924417433       -1.7416656207
 H         -2.1647976688        2.6635692322       -1.5727071768
 H         -1.8926809734       -0.3564178244       -1.3021996771
 H         -1.4535232185        0.6224560214       -2.7138467582
 H         -0.8254875154        2.6143832397        0.6411786810
 H          0.3453882324        1.7644236985       -1.4275516670
 H          2.1384812945        0.0690175959        1.0188894879
 H          2.1212620864        1.4095431513       -0.1390412754
 H          2.6168722983       -0.1564283322       -1.9904516685
 H          2.5992916721       -1.5218870615       -0.8661357529
 H          4.3220335604        1.7683951016       -1.4210273777
 H          6.6864063456        2.1251718385       -0.9669442354
 H          8.6693599962        2.2806249020        0.3350050858
 H          8.9750573985        1.6288566263       -1.3013690191
 H         10.0734103276        1.2258376613        0.0410997592
 H          7.5754799099       -3.8531740854        1.3514994980
 H          5.9503564406       -3.2464052193        1.7501238038
 H          6.3286900571       -3.7734394105        0.0831959529
 H          4.5805785930       -2.1912791709        0.1412464134
 H         -0.1035325284       -1.9110764426       -0.5705191506
 H         -1.0571631072       -0.9655309075        0.6151241629
 H          0.6231118038       -1.5360625053        1.0065631713
 H         -4.4523474162        3.1104990314       -0.1313326749
 H         -3.4620110142        2.8323252742        2.7455864517
 H         -5.0401049623        2.3411218203        2.1194582029
 H         -4.6347284625        4.0418485353        2.2355274432
 H         -2.1195741784        4.4683467971        1.2655535384
 H         -2.2786531607        4.3969529808       -0.4943994699
 H         -3.5003114956        5.2032138747        0.4682991497
 H         -0.4508488196        1.3935457712        2.5888124869
