  72
        -99.30595166
 N         -0.3096981878        1.0532317178        4.6708870961
 C         -0.0987119852        0.5701299310        3.5694164724
 C         -3.0924930345        2.0311977535       -0.2242149753
 C         -3.6062040721        0.7451727250        0.0170444896
 C         -4.2807457008        0.0161347656       -1.0054410258
 C         -4.7408324345       -1.2643334707       -0.8126580629
 O         -5.4067622044       -2.0059666398       -1.7271407750
 C         -5.7786853909       -1.4179771625       -2.9501956556
 C         -4.5244150354       -1.9199639073        0.4352595559
 O         -4.9824269698       -3.1813655407        0.5151266117
 C         -4.8558777343       -3.8877795837        1.7269816144
 C         -3.8783764768       -1.2163616308        1.4475430985
 C         -3.4424227564        0.0755712533        1.2544819004
 C         -2.8586738045        2.4857942970       -1.6309505812
 C         -1.8539554022        1.5898091568       -2.4242033625
 C         -0.4942004836        1.6295917874       -1.8582436973
 N          0.0759676712        0.6522293057       -1.1645208048
 C          1.4435552060        0.7674048610       -0.7171293156
 C          2.4199420803        0.0953060859       -1.7036017184
 C          3.8134551753        0.0867836365       -1.1411170614
 C          4.6152212642        1.2136525771       -1.2146895998
 C          5.8915883664        1.2128187501       -0.6731364601
 C          6.3936911520        0.0811363270       -0.0474527076
 O          7.6144176905       -0.0323619996        0.5117535805
 C          8.4927716724        1.0683193333        0.4707852625
 C          5.5814862077       -1.0824114182        0.0264504990
 O          6.1509367213       -2.1439089972        0.6358801542
 C          5.4457042318       -3.3597169186        0.7002023917
 C          4.3053452768       -1.0547605486       -0.5125863028
 C         -0.5688760647       -0.6242968939       -0.9656919010
 C         -2.7357397310        3.0280893365        0.8467883062
 C         -3.7289583626        3.0888333128        2.0147015381
 C         -1.2942212061        2.8590363587        1.3576477269
 H         -4.4986008635        0.5104745185       -1.9364773116
 H         -6.4059214455       -0.5344788342       -2.7966802130
 H         -6.3524186284       -2.1782723835       -3.4765367941
 H         -4.9040512794       -1.1471200222       -3.5508747519
 H         -5.3938906766       -3.3908132413        2.5399314878
 H         -5.3011195140       -4.8641580323        1.5442374754
 H         -3.8058720052       -4.0165812695        2.0094225733
 H         -3.7138902230       -1.6837645043        2.4054927707
 H         -2.9195836367        0.5609145366        2.0585279072
 H         -3.7938291151        2.4904216937       -2.1969782549
 H         -2.4749356762        3.5065396903       -1.6338834859
 H         -2.2380133925        0.5731092610       -2.4652237785
 H         -1.8151105573        1.9964108845       -3.4389650356
 H         -0.3083625998       -0.4466668364        3.2956521145
 H          0.0773627953        2.5380073488       -1.9722496661
 H          1.5350883187        0.2948255122        0.2644189327
 H          1.7081821018        1.8211319900       -0.6118916744
 H          2.3974283138        0.6438999451       -2.6468776004
 H          2.0929688533       -0.9277436814       -1.8939503290
 H          4.2540441426        2.1029603087       -1.7081229346
 H          6.4939258546        2.1029167746       -0.7512313990
 H          8.0806024942        1.9294574893        1.0059629466
 H          8.7285528269        1.3555251245       -0.5583516111
 H          9.4010700195        0.7348550334        0.9691690624
 H          6.1168774821       -4.0610430301        1.1920101277
 H          4.5293978958       -3.2627974309        1.2917399416
 H          5.1994864430       -3.7346336802       -0.2981509554
 H          3.6826782613       -1.9344257433       -0.4624896563
 H         -0.7622620867       -1.1250437803       -1.9166319326
 H         -1.5159323263       -0.4949386993       -0.4400582011
 H          0.0762562095       -1.2616689267       -0.3663481321
 H         -2.7717501399        4.0115432723        0.3615866759
 H         -3.4814106436        2.3884975265        2.8066771320
 H         -4.7373729926        2.8761077072        1.6707479960
 H         -3.7199645371        4.0873064088        2.4461894651
 H         -1.1534716241        1.9090429417        1.8706018116
 H         -0.5921994667        2.9094622557        0.5312885601
 H         -1.0642195840        3.6608709082        2.0551450795
 H         -0.1130545097        2.0109934430        4.9307837475
