  72
        -99.31594565
 N         -1.3813269986        2.9710953567        1.9638937753
 C         -1.8582882138        1.8211915812        1.6429979006
 C         -3.1423001801        1.6317193503        1.0844385671
 C         -3.6221306078        0.2920151153        0.8536952721
 C         -4.5854590043        0.0169768914       -0.1400045378
 C         -5.0684353034       -1.2569508379       -0.3567009072
 O         -5.9899259495       -1.5988279412       -1.2810694917
 C         -6.6324495830       -0.5884324541       -2.0223791879
 C         -4.5840454337       -2.3403395093        0.4316932339
 O         -5.1087309694       -3.5438893924        0.1462512957
 C         -4.7366673037       -4.6618874555        0.9191685880
 C         -3.6361961965       -2.0758518672        1.4133391139
 C         -3.1628103164       -0.7949275350        1.6172959693
 C         -1.3327876017        3.3087727428       -2.3958609378
 C         -1.1902272705        1.9654788677       -1.8112485370
 C          0.1178335638        1.7114632903       -1.1818505759
 N          0.4987121790        0.5308570423       -0.7225989998
 C          1.8470535865        0.3296337521       -0.2472917935
 C          2.7475342668       -0.2640175893       -1.3503892043
 C          4.1895148936       -0.2249383530       -0.9287489568
 C          4.9347701539        0.9306552946       -1.1052804499
 C          6.2596700134        0.9900123180       -0.7048664765
 C          6.8692407395       -0.1090989832       -0.1159790680
 O          8.1444105971       -0.1636043012        0.3090681273
 C          8.9637086968        0.9750539004        0.1713285531
 C          6.1140713033       -1.3010634437        0.0662689457
 O          6.7850261306       -2.3222566735        0.6338028911
 C          6.1344759096       -3.5561827906        0.8227174308
 C          4.7877286665       -1.3342727533       -0.3373760062
 C         -0.3422932556       -0.6309499661       -0.8682724127
 C         -4.0795888909        2.8023685093        0.9393801654
 C         -4.5319585552        3.2030369092        2.3531754302
 C         -3.4775111630        4.0157193604        0.2331773343
 H         -4.9345833796        0.8227059380       -0.7648842732
 H         -7.1309471623        0.1323118684       -1.3673030209
 H         -7.3776681620       -1.1009552354       -2.6277158044
 H         -5.9328924447       -0.0632905954       -2.6805034801
 H         -4.9863743850       -4.5193330026        1.9745689930
 H         -5.3117844767       -5.4958145902        0.5217385760
 H         -3.6684491787       -4.8796096919        0.8220017443
 H         -3.2756911311       -2.8716339518        2.0451047266
 H         -2.4737734740       -0.6286388793        2.4297522311
 H         -2.1103838168        3.5019003902       -3.1062185607
 H         -0.7186916839        4.1216618097       -2.0655948215
 H         -1.9646955297        1.8182714212       -1.0204978383
 H         -1.4202048800        1.1963055791       -2.5605083266
 H         -1.2485419109        0.9131736905        1.7510109858
 H          0.7983106984        2.5366812089       -1.0474030469
 H          1.8309166909       -0.3394800294        0.6163310432
 H          2.2610033445        1.2888687198        0.0687060168
 H          2.6172665793        0.3317630382       -2.2561170794
 H          2.4431979474       -1.2891021303       -1.5639590850
 H          4.4876311688        1.7949683194       -1.5725148016
 H          6.8147675349        1.8997672632       -0.8635098304
 H          8.5620471991        1.8262733969        0.7293356884
 H          9.0902189963        1.2527983291       -0.8793146747
 H          9.9284703747        0.6930181055        0.5883654588
 H          6.8759472292       -4.2108203948        1.2765543518
 H          5.2774994255       -3.4595414743        1.4968636056
 H          5.8065324753       -3.9860541295       -0.1289024287
 H          4.2081903904       -2.2347378657       -0.2071811945
 H         -0.4663417040       -0.8991198556       -1.9206502070
 H         -1.3314845504       -0.4445078162       -0.4443841844
 H          0.1067367106       -1.4725816495       -0.3471983631
 H         -4.9713444778        2.4843600319        0.3918327133
 H         -3.6756665932        3.5484237558        2.9250792212
 H         -4.9835324275        2.3561384104        2.8650090789
 H         -5.2631134443        4.0047264616        2.2931225853
 H         -2.5839963608        4.3377992404        0.7600933215
 H         -3.2164876415        3.7917264097       -0.8003494829
 H         -4.1977454052        4.8297960068        0.2330963334
 H         -0.4491223350        2.9836389196        2.3590259296
