25
 energy: -42.188263991389 gnorm: 0.006235761753 xtb: 6.6.1 (8d0f1dd)
C            3.10779027140890        1.21790986985284        0.08652588193419
N            2.17497357576936        0.12358272316308        0.05755386719205
C            2.50025394099029       -1.18362417339248        0.04911911957174
N            1.37336088857555       -1.93209663763774        0.01758921998319
C            0.30536565685029       -1.09237145001626        0.00568915305135
C            0.79923557273585        0.21785634628812        0.03052954636745
C           -0.08672399311807        1.28919187899836        0.02137666129913
O            0.32139739608374        2.57169986220955       -0.01537608558554
N           -1.43510006291907        1.00444320165729        0.02605063030527
C           -2.36047591302876        1.97813208212411        0.06677004225794
C           -1.94809667911044       -0.33905201754573       -0.05217028363575
O           -3.13153774815670       -0.53442803873940       -0.10352833761059
N           -1.02305606442277       -1.36548855225312       -0.05282324388650
C           -1.49919348750540       -2.73564584867021       -0.09944111595234
H            3.69835313693883        1.18793229138951        1.00319552869458
H            3.78363172673592        1.16199974834681       -0.76756484448669
H            2.55642003476721        2.15363826342315        0.04832051825658
H            3.49739746685671       -1.56910591401305        0.06304403862731
H           -0.43308394020544        3.13560942668907       -0.25268202433595
H           -3.38012878857518        1.70026541275618       -0.07597913389233
H           -2.10922398973625        2.99021400760783        0.30781654236019
H           -1.16089311526321       -3.28341409867875        0.78035565106965
H           -1.14755049478268       -3.22746228082282       -1.00668886868671
H           -2.58747317888513       -2.71121540910865       -0.10782777521619
H            1.34478930209658       -2.94033215202769        0.00131693021800
