72
 energy: -99.680515658769 xtb: 6.6.1 (8d0f1dd)
N           -1.60109091141994        2.92296782812258        2.32014711448249
C           -1.57157998233213        2.18142091088364        1.30257095485573
C           -2.71481629293023        2.05712514420276        0.32590840153565
C           -3.29682722616655        0.64948754906705        0.37617655429714
C           -4.28784424097850        0.25653549194778       -0.53380911993624
C           -4.95680434156754       -0.95850617617084       -0.48369028711165
O           -6.07923761447735       -1.28277696595802       -1.25421324644280
C           -6.57478450685383       -0.63808428491147       -2.47558255189877
C           -4.48855944769851       -1.89494296254441        0.50084787394207
O           -5.03780106693214       -3.14864532189238        0.52353736704994
C           -4.66530779562190       -4.06083016345164        1.53380265919095
C           -3.50132284367729       -1.50481253883095        1.40360236881508
C           -2.92638154382839       -0.24188447818026        1.36444430313408
C           -2.12368322567093        2.33408980477310       -1.08112760968022
C           -1.26181888816163        1.19802537131298       -1.66830119504200
C            0.06619411502776        1.10707332865834       -1.01868054211080
N            0.67019524410236       -0.07189159605265       -0.62259535864406
C            2.04951873325154       -0.07081682366207       -0.24499393933518
C            3.00660229847809       -0.57043942000274       -1.35496913968394
C            4.42730111761041       -0.46049306632400       -0.89395652404899
C            5.14405328841530        0.70709434973005       -1.08371443150397
C            6.44744025591403        0.82728912220126       -0.62289167731417
C            7.05472351012689       -0.22168672679025        0.04386671121326
O            8.32739736247026       -0.22146832496762        0.53451929498689
C            9.12041085281808        0.92145081828930        0.34551530163891
C            6.32997615362262       -1.41688267542376        0.25272003017021
O            7.01140236688415       -2.39376510895510        0.91680298138318
C            6.37792878865452       -3.62477608355646        1.14645303781082
C            5.03250833028230       -1.51789501406453       -0.21259865179481
C           -0.00604022227152       -1.33384161604522       -0.73053452189875
C           -3.87435965755776        3.05397990849225        0.61519780749710
C           -4.55351445832248        2.76168967042439        1.95266144675670
C           -3.43632690819978        4.51659028826223        0.57504178285686
H           -4.58407798239638        0.95491549616824       -1.29904101700294
H           -7.60260951538781        0.01196852125737       -2.70094831145961
H           -6.75826184958117       -1.51041542471115       -3.10733140703965
H           -5.81643779261381        0.04961811499024       -2.83625747394066
H           -4.88721643996589       -3.68410689733818        2.53863223141408
H           -5.26761726734334       -4.95090569742943        1.35198974887017
H           -3.60526563496123       -4.34061759322876        1.48738134063973
H           -3.16775394344202       -2.17368446217410        2.18737451313386
H           -2.20387302394220        0.04048052199015        2.11892749073846
H           -2.94823372698379        2.53528355450217       -1.76700887298992
H           -1.50882631528153        3.23432135030781       -1.02989565008281
H           -1.80350992904088        0.25554363379500       -1.59733530541184
H           -1.13697834867717        1.42409573883903       -2.74055708831117
H           -0.68620612563643        1.61002356672944        0.98219827004171
H            0.70395066852853        1.97299277166927       -1.03467985605305
H            2.17701965918849       -0.70560624810444        0.63952542824289
H            2.33848114243128        0.94721060470388        0.02490556174912
H            2.84985782904885        0.04057347777087       -2.24535372953502
H            2.76129998073591       -1.60541378786808       -1.59775072967799
H            4.69102376204108        1.53638457726794       -1.60621256948490
H            6.98138885886826        1.74835225099526       -0.79579974410333
H            8.69251200459197        1.79994766121256        0.84083014250866
H            9.26936550810386        1.14184434268098       -0.71722032035569
H           10.08160514227678        0.68631566779164        0.80074736707889
H            7.11325534392087       -4.23598040434488        1.66832434051154
H            5.48922417164774       -3.51357671038132        1.77758318574995
H            6.09829717081795       -4.11925425703131        0.20969849047698
H            4.47119622894475       -2.42769560209895       -0.06383652655404
H           -0.18548806858742       -1.62923975978165       -1.77146477533909
H           -0.96906277591866       -1.28923254774125       -0.21386925088629
H            0.60316202651579       -2.10067752711310       -0.25526279461916
H           -4.61800509051840        2.90510705584612       -0.17662830305051
H           -3.85291206006768        2.92623884394297        2.76431470308035
H           -4.90954339984540        1.73511831219296        1.99471600325198
H           -5.40521550016464        3.42596195654296        2.08264948069172
H           -2.68339770926795        4.70061066248379        1.33449443790746
H           -3.03725899484263        4.79000977566678       -0.39823872021726
H           -4.29490784829931        5.15328280201459        0.77730172985520
H           -0.74718058686581        2.93349470750335        2.87626690607157
