  25
        -42.12663679
 C          3.8550512615        0.4142471936        0.2837372312
 N          3.4881710059       -0.6451686028       -0.3192224736
 C          2.6912835673       -1.6503816968       -0.2695278275
 N          1.3463906687       -1.6803434641       -0.0403355528
 C          0.4117097073       -0.6822648559        0.0506999311
 C          0.6796344256        0.6789226574        0.1131067075
 C         -0.3493922103        1.6016294955        0.0783909884
 O         -0.0539843699        2.8983670319        0.1527695118
 N         -1.6506019226        1.1922382493       -0.0751252697
 C         -2.6860512161        2.0255437289       -0.2708538948
 C         -1.9699133160       -0.2025033991        0.0062081789
 O         -3.1177192920       -0.5567261297        0.0045465741
 N         -0.9125801510       -1.0791216592        0.0783418814
 C         -1.2770924581       -2.4872195985        0.1613909938
 H          3.6472061379        0.6101848180        1.3341252868
 H          4.4913495856        1.1022036160       -0.2562209988
 H          1.6770934599        1.0655062503        0.1817634315
 H          3.0985349471       -2.6027710568       -0.5790930059
 H         -0.8316129699        3.4562131486        0.3026740956
 H         -2.5385431524        3.0697722444       -0.4575634088
 H         -3.6638753767        1.5885249709       -0.3286976477
 H         -0.7836486174       -2.9637358571        1.0101978594
 H         -1.0536210179       -3.0104064066       -0.7714038970
 H         -2.3556242672       -2.5352454670        0.3205350983
 H          0.9453607777       -2.6067357353       -0.1265846122
