25
 energy: 0.000000000000 xtb: 6.6.1 (8d0f1dd)
C            3.23720163006194        1.16630919979326        0.08434469647475
N            2.29877817382611        0.07527477071623        0.03981603040599
C            2.58028210190900       -1.21425402444508        0.03006176031096
N            1.43813958087363       -1.93419271955128        0.00098261760884
C            0.39035688448383       -1.05887472636071       -0.00790371836672
C            0.93510056364412        0.21347819449412        0.01709077491437
C            0.09450143893243        1.40504303904423       -0.00410947031874
O            0.49712751527797        2.54126714362870       -0.00342325688240
N           -1.25076640035757        1.06271879480407       -0.03085478223738
C           -2.21907211982101        2.15522099834493       -0.05001256985998
C           -1.81739487048744       -0.20012725993278       -0.04692818574614
O           -2.99983886758376       -0.37846417018721       -0.07008878229737
N           -0.92618586207120       -1.30210215599479       -0.03682761578324
C           -1.46982264913417       -2.64643102187190       -0.06029820460571
H            3.71247264356769        1.21471455160235        1.06488849150277
H            4.00791497605742        1.03430808813993       -0.67357694370751
H            2.69910007168542        2.09770118228144       -0.09130154882931
H            3.56654120610678       -1.63682992603973        0.04233140067262
H           -1.67107961066214        3.09322851271934       -0.02552706933167
H           -2.82428953597071        2.09428624779827       -0.95318082946668
H           -2.87644029173232        2.07745725625962        0.81450067533302
H           -1.17061996399332       -3.19584890659852        0.83242232437030
H           -1.14560257411436       -3.17511610292205       -0.95688275822323
H           -2.55549792440841       -2.55659984320617       -0.07459039797972
H            1.38130855184625       -2.94313852034425       -0.01389874181052
25
 energy: 0.271689568514 xtb: 6.6.1 (8d0f1dd)
C            3.24267621329891        1.18844522754779        0.09063702819047
N            2.30498101397071        0.10849233686852        0.02888539165785
C            2.59885144818231       -1.21647737917929        0.01231176137130
N            1.43136294827348       -1.92845579655753       -0.02415921605921
C            0.39507811871349       -1.05165237488654       -0.01674419584332
C            0.92745032706023        0.23146283449110        0.00307925864691
C            0.10556666716680        1.40899145906759       -0.01330034700457
O            0.50610505793795        2.57317813271537       -0.00717201408445
N           -1.25519642369050        1.06571952805557       -0.04244938912181
C           -2.20955157769735        2.17211362148835       -0.04980186798314
C           -1.81754989157528       -0.19110200539606       -0.06017725266192
O           -3.01528286279000       -0.36210040524252       -0.08280144474444
N           -0.93504792398635       -1.31126536717259       -0.02073878780648
C           -1.47180905845891       -2.67838972630627       -0.01104148044791
H            3.71756910396398        1.22407972918784        1.07461270079433
H            4.01430807719610        1.05804429021160       -0.66936465631605
H            2.70144495992577        2.11710709677876       -0.07852193357055
H            3.57769959044578       -1.63745378787180        0.02709179804673
H           -1.64852114863308        3.10508235165512       -0.02560241731259
H           -2.82357385673119        2.12849457385822       -0.94879331650800
H           -2.86170793504407        2.10495498311473        0.82048054139244
H           -1.30061855025045       -3.41901016769010        0.86917845211641
H           -1.08829028229869       -3.21939536615769       -0.86453955472576
H           -2.55473428007713       -2.55011104167054       -0.13696386566385
H            1.37100493303367       -2.93172414473761       -0.04707129621509
25
 energy: 16.714661650148 xtb: 6.6.1 (8d0f1dd)
C            3.24608735546105        1.20937478035419        0.09895575257082
N            2.30583732013339        0.13963888187769        0.01019965452981
C            2.61076451435977       -1.20956731006839       -0.01697217743421
N            1.42548704174149       -1.91199427446995       -0.06050047983201
C            0.39635458917611       -1.04557142001058       -0.03022917951388
C            0.91602099005307        0.24944563602996       -0.01417766942199
C            0.11895208470260        1.41020405079774       -0.02320473438651
O            0.50763316135085        2.59060266509251       -0.01211221383177
N           -1.26037560367705        1.06964217736858       -0.05490446414432
C           -2.19485263140869        2.19591854767574       -0.05019591798373
C           -1.81458460005909       -0.18366680106123       -0.06061037682454
O           -3.01956790208298       -0.34097606650372       -0.10413097176485
N           -0.94618266884742       -1.33281197593867        0.00813292265458
C           -1.48414221037538       -2.72126699225347        0.04114013012685
H            3.72111376707963        1.23136792697558        1.08576709812755
H            4.02257373330032        1.09100000943751       -0.66041714931729
H            2.70774802979236        2.14163976489884       -0.05807106587750
H            3.58453214116043       -1.62567596230984        0.00370236332511
H           -1.61481976645142        3.12067230000030       -0.02718068287784
H           -2.82164603042627        2.17647039787171       -0.94197486409683
H           -2.83838013758674        2.14465869938359        0.82863770603048
H           -1.47815036935018       -3.65981078665412        0.92401982648689
H           -0.99017418786987       -3.28853613029519       -0.74056837732676
H           -2.55570622832555       -2.54915342339875       -0.22519601027093
H            1.36769227608579       -2.91257609262802       -0.09307522279989
25
 energy: 34.352351478226 xtb: 6.6.1 (8d0f1dd)
C            3.24493035838932        1.22058123070305        0.10786505200022
N            2.30179866158306        0.15415129816239       -0.00953679692528
C            2.60953920788521       -1.20036123185744       -0.04774834826402
N            1.42213547603988       -1.89712323837943       -0.09199206268920
C            0.38863132040684       -1.04252639930346       -0.04397736357809
C            0.90643426495169        0.25928517763184       -0.02686384567038
C            0.12622665582890        1.41888206525045       -0.02951502536784
O            0.50690877251786        2.60202076547522       -0.01559955952533
N           -1.26466093988678        1.07927237345120       -0.06358375597405
C           -2.18146497452189        2.22072093286616       -0.05062094798844
C           -1.81738548057546       -0.17468578685610       -0.06108390623848
O           -3.02298698288742       -0.32115912154720       -0.12352509859172
N           -0.95969208393956       -1.34903961782132        0.02777530489450
C           -1.50009568268802       -2.75811540393740        0.07120699788182
H            3.71707443762191        1.22842065278776        1.09751749309509
H            4.02801085897798        1.11771261992737       -0.64799351375780
H            2.71377097472593        2.16040097995780       -0.03581363332129
H            3.58445310699170       -1.61284328957720       -0.02028138744892
H           -1.58162805160422        3.13487722475637       -0.02984810295141
H           -2.81603373979436        2.22141610356035       -0.93689711337367
H           -2.81643423530294        2.18386479017711        0.83526169139254
H           -1.60581103981288       -3.82684187496024        0.97671155499800
H           -0.89750832583028       -3.34830197224683       -0.62546288534439
H           -2.54421892323808       -2.58308451074224       -0.29326126533250
H            1.37022103209781       -2.89849516530620       -0.13569958577207
25
 energy: 49.980083854038 xtb: 6.6.1 (8d0f1dd)
C            3.24402431565115        1.22410196525735        0.11194063580018
N            2.29996316258029        0.15865311487263       -0.02447501812051
C            2.60437743100410       -1.19175820321886       -0.06661874558025
N            1.42230978097217       -1.88467454143881       -0.10699736330008
C            0.38165199148191       -1.03773166593068       -0.05490635912420
C            0.90284493297042        0.26608080827842       -0.03119929621024
C            0.13217681357465        1.43120844845023       -0.03231226854773
O            0.50944671213956        2.61055657472095       -0.01909968599550
N           -1.26598042074335        1.09204369751752       -0.06501524314489
C           -2.17559913839308        2.23759451022743       -0.05231005860973
C           -1.82035700375379       -0.16199654383643       -0.05814680936180
O           -3.02306550885294       -0.30482889258240       -0.13371367187099
N           -0.96651525644564       -1.35145194736346        0.03457686176555
C           -1.50893896680040       -2.77215624517831        0.07585006179738
H            3.71180265701358        1.22403874797522        1.10350497167501
H            4.03066181096035        1.12924991798400       -0.64085132097943
H            2.71701666798110        2.16788044714553       -0.02615085076616
H            3.58146669908430       -1.60298674756128       -0.02947844505092
H           -1.56728352895372        3.14609424483721       -0.03565962732310
H           -2.81213845228021        2.24496304401738       -0.93562852778996
H           -2.80547419023629        2.20852829771952        0.83669428740417
H           -1.68377451847670       -3.98496715917155        1.00452020599571
H           -0.85475772869574       -3.36431874880512       -0.54482258172838
H           -2.51668947944658       -2.60739313644446       -0.32539705144616
H            1.37504588560104       -2.88770138530005       -0.15727020334071
25
 energy: 68.757045630301 xtb: 6.6.1 (8d0f1dd)
C            3.24489103439337        1.22357148123383        0.11011379661224
N            2.30087126098059        0.15705188752428       -0.03856245917973
C            2.59327543436021       -1.17990987475125       -0.07995014813392
N            1.42448715985823       -1.86909480377192       -0.11382568632568
C            0.37311597171983       -1.02716286119505       -0.07254198626672
C            0.90383289897054        0.27554082191762       -0.03103235922525
C            0.14099117159856        1.45032520893359       -0.03509071114724
O            0.51628245725817        2.62068787164427       -0.02162408437873
N           -1.26310034153176        1.11259354741623       -0.06158066768848
C           -2.17404070301724        2.25271918919763       -0.04867141026128
C           -1.82267110769471       -0.13891338962800       -0.06406453414661
O           -3.01939948882565       -0.28376022035209       -0.14138775605065
N           -0.96742522347091       -1.33736508529334        0.01455424432657
C           -1.51763334048645       -2.75791017716965        0.06186891933444
H            3.70916123996559        1.22158970172979        1.10133707615820
H            4.03134004361769        1.13197790220541       -0.64150208825833
H            2.71956018921997        2.16899250462993       -0.02771426000603
H            3.57373931949562       -1.59237658239919       -0.03164356307180
H           -1.56694684563376        3.15998595389334       -0.03499602891326
H           -2.81122804213183        2.25816845947044       -0.92957368629102
H           -2.79937389713666        2.22146763120119        0.84172876840363
H           -1.78586185015782       -4.22135976989982        1.05609266576222
H           -0.79291093192673       -3.36984250920532       -0.43244665805312
H           -2.47882761346077       -2.61286098860013       -0.38237516106652
H            1.38008587197212       -2.87508729655979       -0.17007832598564
25
 energy: 80.048106035161 xtb: 6.6.1 (8d0f1dd)
C            3.24634688789766        1.22422960311311        0.10774029842509
N            2.30224021951707        0.15591038102443       -0.04322828170983
C            2.58464269542046       -1.16887890009794       -0.08328467542762
N            1.42633603723575       -1.85718779182056       -0.11810039034979
C            0.36793366324572       -1.01568250684347       -0.08594860387364
C            0.90703026378449        0.28500468114913       -0.03244820739557
C            0.14775403943627        1.46541095146945       -0.03933820725931
O            0.52176404578607        2.62888851358596       -0.02475855514259
N           -1.25776073096137        1.13014543913484       -0.06135041087642
C           -2.17246294237874        2.26461968826657       -0.04747027281107
C           -1.82097480192207       -0.12018779465365       -0.06831146638912
O           -3.01368890157478       -0.26663527038157       -0.14564942144272
N           -0.96282789298561       -1.31875140648700       -0.00509557719541
C           -1.51825791244514       -2.73067707557704        0.05030711707721
H            3.70794076647421        1.22241097152730        1.09855746771632
H            4.03248170219891        1.13338114480153       -0.64321142400302
H            2.72139085085668        2.17041192263166       -0.03089958250128
H            3.56764544862444       -1.58248415281710       -0.03219499718112
H           -1.57001038641417        3.17365068043215       -0.03568832207878
H           -2.81126525392809        2.26479887162891       -0.92658276549801
H           -2.79562940877442        2.22857102501859        0.84374104983472
H           -1.85955387370204       -4.45753683736094        1.09324738373389
H           -0.76673564475614       -3.36476750431393       -0.34747527731501
H           -2.45368964279250       -2.61024068811847       -0.41833731811793
H            1.38156544009352       -2.86537534313991       -0.17718566407170
25
 energy: 83.624742282006 xtb: 6.6.1 (8d0f1dd)
C            3.24674937967606        1.22273430432643        0.10383628308642
N            2.30559012244568        0.14196486037670       -0.02821879575520
C            2.56985031849976       -1.15345642941166       -0.06833872085793
N            1.43198926529423       -1.85273671051993       -0.11668331467737
C            0.36216261493397       -0.99727143573237       -0.10220293914281
C            0.92111849493244        0.29254391542922       -0.03383593036552
C            0.14648572694144        1.47867476129409       -0.04577846639561
O            0.52468081212790        2.62951944885783       -0.02567630260725
N           -1.24384998854797        1.14887765393398       -0.06413439352689
C           -2.17182012700580        2.27038786614635       -0.04687042706091
C           -1.81761760301910       -0.10059298584556       -0.08438737318845
O           -3.00492891969650       -0.25706224719097       -0.14315205980671
N           -0.94112648856156       -1.26303781318784       -0.07040738130522
C           -1.50043132864710       -2.61668317102469        0.00233679769994
H            3.70595408748105        1.22539062359560        1.09274396807567
H            4.03082231772384        1.13056564965047       -0.64763322373190
H            2.71774801565852        2.16755248009374       -0.03655689784554
H            3.55860771871936       -1.57237606937155       -0.03436681507197
H           -1.58079040486686        3.18502004964249       -0.03457117637082
H           -2.81307823978532        2.25596736015473       -0.92633430236402
H           -2.79781248386647        2.22085446388988        0.84287190130270
H           -1.87909356997558       -4.77486092396691        1.16038720873362
H           -0.79466626501015       -3.34023116659269       -0.25444854473874
H           -2.44211510165128       -2.58906084848356       -0.43530097092800
H            1.37778631413561       -2.86365503389179       -0.17624422701019
25
 energy: 82.776282108343 xtb: 6.6.1 (8d0f1dd)
C            3.24720166007780        1.22098194844784        0.09895208900458
N            2.30869429085748        0.12523676950907       -0.00082229442625
C            2.56114391093290       -1.14443280667734       -0.04641354641691
N            1.44130450069709       -1.86667728056654       -0.11472237590353
C            0.35969464613295       -0.98585632635206       -0.10980387087961
C            0.93803954864094        0.29462560576927       -0.03537137590428
C            0.13122977194403        1.47633369139626       -0.04318845403407
O            0.52574933981966        2.62505208447198       -0.01802277924554
N           -1.22921928948966        1.15076641282020       -0.06553370059982
C           -2.17219145758232        2.26393246485577       -0.04304657135058
C           -1.81987680508366       -0.09786105199097       -0.10799034772188
O           -3.00889333537173       -0.26032403835979       -0.13236076780996
N           -0.92515968931061       -1.20579074451977       -0.15910669033399
C           -1.47715388110621       -2.44215114230374       -0.09325976740231
H            3.70699343858555        1.22683108605957        1.08653843184813
H            4.02724571245818        1.12175862380908       -0.65456492643472
H            2.71053178722622        2.16071359797276       -0.04347998844988
H            3.55400913375843       -1.57294184136229       -0.03508759655562
H           -1.59439966803948        3.18586024686013       -0.02759168070169
H           -2.81533716406661        2.23662089309223       -0.92542955367111
H           -2.80609286555159        2.20197608682121        0.84310229235493
H           -1.80517804341269       -4.94172257658166        1.26015167248785
H           -0.82375582545056       -3.34412056329734       -0.20583769760496
H           -2.49432124302360       -2.56436036391007       -0.43587123660638
H            1.37195619429371       -2.87542217379184       -0.16420536749512
25
 energy: 81.798955105254 xtb: 6.6.1 (8d0f1dd)
C            3.25014015673446        1.22627382050591        0.10320544791533
N            2.31101062963370        0.13242291624464        0.01380888252641
C            2.57170750396008       -1.14594354646003       -0.03219899220413
N            1.45086435080292       -1.87447583952929       -0.11366311329931
C            0.37057687360228       -0.98644327564621       -0.11224166621140
C            0.94249744704604        0.30150319206189       -0.03917790584856
C            0.12850352262167        1.47212026347250       -0.04293801552971
O            0.53146070410747        2.63091059931975       -0.01627892394369
N           -1.22631692563236        1.14596274719747       -0.07575466455658
C           -2.17400752310476        2.25917882683397       -0.05226039043433
C           -1.81623603461741       -0.10320836107188       -0.11643396445455
O           -3.01067604607889       -0.25768741798450       -0.12981625842127
N           -0.92976605951692       -1.21649586763056       -0.17586339264679
C           -1.47487594797900       -2.42212503277699       -0.13494692704499
H            3.71131350992839        1.23760592586110        1.09121180950923
H            4.02803043220047        1.11857726140753       -0.65131577423355
H            2.70759663317913        2.16029828795747       -0.04587991850701
H            3.56101247349354       -1.57615170753755       -0.01497259953481
H           -1.60416277747197        3.18624125398573       -0.03477630973335
H           -2.81452346779861        2.22631224407431       -0.93619653596558
H           -2.81101907627085        2.19199843435641        0.83141198542606
H           -1.70262761644064       -5.02818109708352        1.27683003586556
H           -0.93917326839264       -3.28401109263493       -0.28877040545942
H           -2.52483190522929       -2.52610747677412       -0.32929383379194
H            1.37571707915937       -2.87954645597708       -0.14665467327435
25
 energy: 78.981810353218 xtb: 6.6.1 (8d0f1dd)
C            3.25462254444658        1.22884964500434        0.10534521180285
N            2.31110481615063        0.14840444805803        0.01197293894105
C            2.58147483340044       -1.15120640749822       -0.03342968982494
N            1.45124314996744       -1.86976514828095       -0.12078282969318
C            0.37970853630326       -0.98010679473120       -0.12976139230076
C            0.93942522346444        0.31791077926434       -0.04540607039043
C            0.13747301202501        1.48173866650273       -0.03952518407767
O            0.54516605884258        2.65065721680363       -0.00454017962162
N           -1.22962801743009        1.15847873868610       -0.08403270552958
C           -2.18058602739768        2.26677931993539       -0.04663810263685
C           -1.81150365482580       -0.08595150794777       -0.13839054816436
O           -3.01096010963661       -0.23231561228067       -0.13992249652909
N           -0.94532035647177       -1.23384148676747       -0.20182390097013
C           -1.50157346768506       -2.45682093993222       -0.17744120976858
H            3.71894683363895        1.24189742183556        1.09282756733681
H            4.02805197058824        1.11492453750166       -0.65280630435660
H            2.70871734603567        2.15947768440528       -0.04704578638015
H            3.56406641924815       -1.58079612752963       -0.00270646074358
H           -1.61561570413728        3.19577253747057       -0.02375073618742
H           -2.81780997248526        2.23226121678188       -0.92945086343203
H           -2.81263894772022        2.18515399255550        0.83758793377676
H           -1.69284951920658       -5.08921549641331        1.32636047477537
H           -0.91436371989317       -3.35663294862076       -0.27893735282224
H           -2.54915170651084       -2.48392726825872       -0.30666472930441
H            1.37421512722517       -2.87269786437211       -0.14400368775196
25
 energy: 78.310683120052 xtb: 6.6.1 (8d0f1dd)
C            3.25170016579713        1.22444720511205        0.10416923656027
N            2.30572414253358        0.14736339986141        0.01204913142532
C            2.58017834505641       -1.15730512709825       -0.03369278282542
N            1.44506208704980       -1.87158767531853       -0.11523873825914
C            0.38042514829662       -0.98225541142527       -0.11127971259136
C            0.93365663097684        0.31516873400266       -0.04131104643250
C            0.13262165613258        1.47540273561221       -0.03501496286347
O            0.54141994503862        2.64580737167982       -0.01398186754348
N           -1.23534519694728        1.15410120803111       -0.07847617323399
C           -2.18145183368213        2.26448726896715       -0.04852528785864
C           -1.81105458510767       -0.08687128098892       -0.12431844527339
O           -3.01230075522466       -0.24075310086914       -0.12808992721230
N           -0.94785805220469       -1.23860486051573       -0.18596114753424
C           -1.50366158419543       -2.46333834227164       -0.21809306805517
H            3.71791650110072        1.23610495158475        1.09113384269252
H            4.02613169889015        1.11411754882570       -0.65414278929956
H            2.70861696587844        2.15828201362833       -0.04308302826857
H            3.56143164540000       -1.58455667573183       -0.01080558382028
H           -1.60491582638219        3.18691781779196       -0.03018952215080
H           -2.81834723589877        2.22985395946034       -0.93148266685027
H           -2.81229647677022        2.19219259871544        0.83707413452799
H           -1.64205325346088       -5.02027519197986        1.36847672534347
H           -0.88763309972680       -3.34700607817218       -0.32367197683490
H           -2.58373187414411       -2.48793436059372       -0.31911074596959
H            1.36797950953016       -2.87473010613587       -0.13939970152519
25
 energy: 78.168712327589 xtb: 6.6.1 (8d0f1dd)
C            3.24996415134294        1.22204563460506        0.10569309402393
N            2.30336742499077        0.14402778648075        0.00834339665477
C            2.57618173623295       -1.15621748773656       -0.03576886186371
N            1.44222752077639       -1.86755325905504       -0.11981811089866
C            0.37781052649556       -0.98432189221951       -0.11285774905584
C            0.93041566224496        0.31150315794198       -0.04493502415210
C            0.13278106720332        1.47414942035543       -0.03765936365637
O            0.53819813168182        2.64150139252248       -0.01513468074137
N           -1.23727799285611        1.15446710794378       -0.07952447738531
C           -2.17989030340500        2.26628065618061       -0.04878092516870
C           -1.80974199392781       -0.08390738816490       -0.12423488849119
O           -3.00976102909208       -0.24666524280206       -0.13153276690594
N           -0.94536885772757       -1.23721267541381       -0.18237211740746
C           -1.50750479262460       -2.45505433451848       -0.25160449431849
H            3.71417129441656        1.23427719186415        1.09340226457749
H            4.02820745260850        1.11719728444117       -0.64958258552622
H            2.71107728223024        2.15969426017425       -0.04044470031701
H            3.56012079682342       -1.57950267884281       -0.01257494346501
H           -1.59987439570816        3.18659066342452       -0.02933732139579
H           -2.81783281497575        2.23652053126116       -0.93125582387930
H           -2.81030831767560        2.19561037009729        0.83689476185735
H           -1.62665981691453       -5.04782430634237        1.43017728722505
H           -0.88812421006620       -3.33874807612221       -0.32364803506996
H           -2.58968387687601       -2.48477430369622       -0.32975936989595
H            1.36972002273817       -2.87305521020668       -0.14665066859694
25
 energy: 77.825246756596 xtb: 6.6.1 (8d0f1dd)
C            3.24966828608861        1.22028955105695        0.10499319628178
N            2.30452201875856        0.14041880958782        0.00713951714149
C            2.57389513918626       -1.15624248584244       -0.03478710111766
N            1.44003302620547       -1.86486080619171       -0.11817754051951
C            0.37457342918835       -0.98870433632771       -0.11594263750781
C            0.92905253723065        0.30644299199435       -0.04270362244375
C            0.13697154147062        1.47462578351095       -0.03737155036017
O            0.53640041023669        2.63860801547033       -0.00993388550653
N           -1.23772997006593        1.15457587687100       -0.07657284589995
C           -2.17965220095047        2.26587622702178       -0.04684413396698
C           -1.81012260473967       -0.08132692799261       -0.12463839076221
O           -3.00833179182696       -0.25037378182713       -0.13598480778288
N           -0.94243314338025       -1.23620397889774       -0.17972432789980
C           -1.51185647127261       -2.45648729576474       -0.28693129994054
H            3.71495485328300        1.23463750521289        1.09199467831040
H            4.02703192659140        1.11625051016982       -0.65130029778451
H            2.71165829962044        2.15890080509210       -0.04268106972535
H            3.56074282013870       -1.57672814123260       -0.01225572572729
H           -1.60328889751311        3.18835235673809       -0.02690382112518
H           -2.81698378852771        2.23666567828007       -0.92987019830285
H           -2.81175973005633        2.19438145792134        0.83761397755768
H           -1.61782776428542       -5.03173011062870        1.48474614270489
H           -0.90156566443845       -3.33890063221203       -0.33074174021349
H           -2.58063981354212       -2.48674220078594       -0.34760227122091
H            1.37490222053642       -2.87269626905216       -0.14848634804157
25
 energy: 77.809041314930 xtb: 6.6.1 (8d0f1dd)
C            3.25008252382580        1.22113157113622        0.10606757856019
N            2.30594411312815        0.14047205322576        0.00847562391535
C            2.57347410259730       -1.15619387912638       -0.03505512449671
N            1.44040063833205       -1.86572332060075       -0.11832809174785
C            0.37323213320428       -0.98869477518093       -0.11924632710814
C            0.93000001233204        0.30724554775524       -0.04087944607236
C            0.13867025487609        1.47614770782272       -0.03844390998610
O            0.53645545509242        2.64035619278236       -0.01204039047464
N           -1.23701781965360        1.15494629410550       -0.07543162929717
C           -2.17944751132855        2.26619531663216       -0.04693167581347
C           -1.81298237556063       -0.08057083003042       -0.12434401901407
O           -3.01047659000031       -0.24719228687884       -0.13317949754106
N           -0.94363416887515       -1.23453672216243       -0.18434954170837
C           -1.51162143203995       -2.45135754656315       -0.29958531008969
H            3.71490367838118        1.23425260344476        1.09322428270273
H            4.02675156463615        1.11564685767807       -0.65076393874969
H            2.71077583058707        2.15847240074733       -0.04180829201242
H            3.56004365406178       -1.57830883775470       -0.01252100886269
H           -1.60408685768453        3.18938193549027       -0.02811873583576
H           -2.81714640600358        2.23507958492251       -0.92999732715858
H           -2.81159893526577        2.19507533020773        0.83788376493887
H           -1.61524990425854       -5.04023253290918        1.49174504886507
H           -0.90394639218888       -3.33827147195455       -0.32416838926742
H           -2.57744318490724       -2.49108140478185       -0.34560825385074
H            1.37613228464860       -2.87321118583546       -0.14956149374802
25
 energy: 77.750683160583 xtb: 6.6.1 (8d0f1dd)
C            3.25059499298131        1.22229976439304        0.10543388842010
N            2.30729419020401        0.14125215188873        0.00864371233858
C            2.57407564629443       -1.15645150642165       -0.03528176789793
N            1.44128422274471       -1.86704659273825       -0.11689337031151
C            0.37288527021293       -0.98888921451352       -0.11928990142405
C            0.93079298764509        0.30794679721451       -0.03825337321350
C            0.14022778691900        1.47665517948003       -0.03838959210390
O            0.53597678384318        2.64177323320146       -0.01298246543678
N           -1.23667769662521        1.15392940881822       -0.07462983824923
C           -2.17944147654140        2.26565939783462       -0.04669411596803
C           -1.81529053776259       -0.08173352568872       -0.12447971469962
O           -3.01181890756055       -0.24593498499584       -0.13266626282365
N           -0.94478922916730       -1.23496630222987       -0.18406444251549
C           -1.51237235783821       -2.45117785165129       -0.31039552036149
H            3.71500720771032        1.23503734323107        1.09265241690102
H            4.02721822585010        1.11519329903149       -0.65125742476814
H            2.71052668481812        2.15833772781133       -0.04333254659210
H            3.55989160729012       -1.58008270969619       -0.01171942687723
H           -1.60455033504100        3.18913337337067       -0.02711753525234
H           -2.81693966374570        2.23473866293003       -0.93012117154042
H           -2.81195208065163        2.19417319700298        0.83797192771454
H           -1.61823818532153       -5.03876534490002        1.48946915636633
H           -0.90342416012328       -3.33538731903883       -0.31674596968144
H           -2.57545000821845       -2.49285004185355       -0.34345727886671
H            1.37738370001973       -2.87381554030844       -0.14936548700974
25
 energy: 77.645223682581 xtb: 6.6.1 (8d0f1dd)
C            3.25066577841655        1.22280659317797        0.10621987101371
N            2.30770173229751        0.14164716412119        0.00836789692727
C            2.57444371719409       -1.15641446523448       -0.03640246640566
N            1.44198109656547       -1.86827166835807       -0.11721834662981
C            0.37293679457351       -0.98853747138671       -0.12025716089727
C            0.93121249037851        0.30836370701746       -0.03733207941735
C            0.14071471418646        1.47644084062342       -0.03873160235988
O            0.53545992713646        2.64223721948937       -0.01288755769491
N           -1.23645151876216        1.15284693272187       -0.07471428651593
C           -2.17945328436791        2.26531087781419       -0.04658823888000
C           -1.81643534792594       -0.08350297214542       -0.12597229828031
O           -3.01237128106262       -0.24582192781726       -0.13283605492889
N           -0.94509752668463       -1.23526816741185       -0.18592167168546
C           -1.51056025855948       -2.45127735702507       -0.32241172944222
H            3.71461374164534        1.23449216915592        1.09369979953856
H            4.02777427747317        1.11547832105436       -0.65000362861643
H            2.71048808056292        2.15834876222587       -0.04221967509246
H            3.55956351105670       -1.58123305413977       -0.01168070493579
H           -1.60465296420509        3.18881975686626       -0.02664427936427
H           -2.81680699200719        2.23478871043943       -0.93016404782491
H           -2.81212834117441        2.19365013327528        0.83801479789674
H           -1.61806308997139       -5.02916767583539        1.48269375005957
H           -0.90549668074959       -3.33768516391499       -0.30387682676529
H           -2.57508511926883       -2.49474373533425       -0.33476967402209
H            1.37726121118874       -2.87427892720732       -0.15132988952966
25
 energy: 77.593255611707 xtb: 6.6.1 (8d0f1dd)
C            3.25041418931812        1.22232335559068        0.10532177161880
N            2.30704083607472        0.14158774777915        0.00794172060747
C            2.57447507852756       -1.15614931483496       -0.03606001291401
N            1.44192022529304       -1.86787319728199       -0.11592771542359
C            0.37326391006737       -0.98807726254553       -0.11807228475064
C            0.93081034568610        0.30825246632803       -0.03689418611268
C            0.14036592483041        1.47625312450441       -0.03801850638163
O            0.53550919285956        2.64186333966167       -0.01273119713237
N           -1.23664778405592        1.15295390277003       -0.07409154180697
C           -2.17961885725698        2.26537612144228       -0.04657178898975
C           -1.81548519366165       -0.08400617157811       -0.12409079160826
O           -3.01168892398545       -0.24600941933193       -0.13198737929591
N           -0.94471801875836       -1.23619086724163       -0.18316178090702
C           -1.50889863947109       -2.45349563946145       -0.32972647347350
H            3.71514325879128        1.23474678599029        1.09245126426118
H            4.02721313177554        1.11519224501614       -0.65121479802257
H            2.71056632415506        2.15824446571683       -0.04302729433621
H            3.55960998746515       -1.58068772462250       -0.01168707739236
H           -1.60443729674584        3.18862529725541       -0.02750062733745
H           -2.81684750093464        2.23428706486971       -0.92992201346113
H           -2.81189702581837        2.19434126639680        0.83821553870292
H           -1.62346674664215       -5.02826465591749        1.47289957389100
H           -0.90186709417532       -3.33628291159071       -0.29270836954691
H           -2.57470616678001       -2.49411581114351       -0.33591819362710
H            1.37616151137806       -2.87386560559962       -0.15048394041406
25
 energy: 77.564758972783 xtb: 6.6.1 (8d0f1dd)
C            3.25018767538257        1.22181620322025        0.10570816702202
N            2.30639881304400        0.14116246023194        0.00789586204652
C            2.57446076947626       -1.15599368459137       -0.03587385993553
N            1.44174226792173       -1.86732961987409       -0.11691804170560
C            0.37371581896388       -0.98812720621076       -0.11839062336969
C            0.93053978439686        0.30760177386231       -0.03869773779511
C            0.13924329219146        1.47576603112342       -0.03821726057191
O            0.53562894357036        2.64085504863622       -0.01189556002806
N           -1.23679368976476        1.15314129318795       -0.07529045348399
C           -2.17968887573651        2.26522213640436       -0.04626785228016
C           -1.81392268668837       -0.08408070276634       -0.12558790820546
O           -3.01079287303381       -0.24721093582176       -0.13311292901033
N           -0.94388755453032       -1.23646892822096       -0.18421970581134
C           -1.50755463033801       -2.45393245495683       -0.33019011403195
H            3.71472819899808        1.23456922766666        1.09298516768113
H            4.02734447397658        1.11563827742585       -0.65059727828295
H            2.71082250145354        2.15846960553755       -0.04247998232272
H            3.56002351559626       -1.57970881106054       -0.01208272432910
H           -1.60415415866536        3.18823861245327       -0.02622662566083
H           -2.81699945440988        2.23517090244282       -0.92957922907006
H           -2.81182702118296        2.19344049894714        0.83844749645002
H           -1.62338499860422       -5.02473025661158        1.47161723117064
H           -0.90387062547931       -3.33835247604970       -0.28733903172502
H           -2.57526959665187       -2.49242833498277       -0.33547924845248
H            1.37552477804998       -2.87370005782104       -0.15117386215075
25
 energy: 77.576001510648 xtb: 6.6.1 (8d0f1dd)
C            3.25015161108207        1.22154223282476        0.10570834178239
N            2.30601610986029        0.14106178850706        0.00833258385451
C            2.57426363963556       -1.15609181534024       -0.03563566719450
N            1.44126635973763       -1.86675375959570       -0.11745845508831
C            0.37377012948922       -0.98823061896947       -0.11799519605914
C            0.93030892157572        0.30740100696750       -0.03929723173148
C            0.13848314413910        1.47578597075888       -0.03756929693890
O            0.53608343274826        2.64050131981297       -0.01149565956424
N           -1.23689627975258        1.15372066398756       -0.07512985714383
C           -2.17963335760602        2.26545097618603       -0.04644873065893
C           -1.81309991163898       -0.08338383638728       -0.12457232899191
O           -3.01045980301386       -0.24732459152767       -0.13250247345218
N           -0.94382897072613       -1.23648729386704       -0.18418050867678
C           -1.50731634326374       -2.45427625659495       -0.32914914433145
H            3.71512910656008        1.23428336504161        1.09278840727659
H            4.02686497014327        1.11566687168077       -0.65105660904499
H            2.71084123724266        2.15856856491537       -0.04206786333952
H            3.56010326098380       -1.57922019286070       -0.01266988023321
H           -1.60415916282278        3.18857243371780       -0.02722635329830
H           -2.81705522852038        2.23481340531060       -0.92960884733831
H           -2.81179709892726        2.19429648831517        0.83828720857901
H           -1.62266799105820       -5.02630067896604        1.47208097206914
H           -0.90389952747148       -3.33856069587241       -0.28635579374513
H           -2.57549201953563       -2.49253170382725       -0.33877939590312
H            1.37523843907557       -2.87347504204535       -0.15096432468013
