72
 energy: -99.539825950606 xtb: 6.6.1 (8d0f1dd)
N           -1.71873468151591        2.83643786942806        2.30877166848560
C           -1.70662206297349        2.13371276766843        1.26705642809851
C           -2.80668362499792        2.13429789134682        0.22839512425771
C           -3.44324735874856        0.76244865291387        0.18435932589306
C           -4.40911583883554        0.39949454935258       -0.75902094384128
C           -4.96307604749913       -0.89335024041787       -0.81261456170255
O           -5.91658638842971       -1.25408984635369       -1.70328381577389
C           -6.39907676521841       -0.26239177408916       -2.57026539876255
C           -4.46020488709437       -1.78494681186944        0.12160250374105
O           -3.56262112259707       -3.79217323485009        1.05019442968335
C           -3.84770234183746       -4.45787755524660        2.16323948929916
C           -3.54593278655570       -1.42322819883225        1.04074687045475
C           -3.03226460706892       -0.15490152231598        1.10892584624120
C           -2.14690319926953        2.40959784649047       -1.14584456595007
C           -1.26657569611189        1.26585312961977       -1.71412912478800
C            0.03392432965232        1.07298682351094       -1.00966010672697
N            0.55783528522089       -0.11540944306386       -0.60377826832643
C            1.93768108461209       -0.16336489753528       -0.18416207547581
C            2.89171460549372       -0.58865655982238       -1.32674891614989
C            4.31781339297221       -0.48345796401536       -0.86948687130119
C            5.02295544946924        0.69484164723477       -1.01809406621903
C            6.32768946643278        0.81175246080363       -0.55281079867548
C            6.94306500461380       -0.25303535088734        0.08129065028176
O            8.21564797144316       -0.26055840928066        0.56831574603869
C            9.00407381101631        0.89044828409727        0.38376180724860
C            6.22326381372607       -1.45801683412782        0.25917221760305
O            6.90541308303448       -2.44906735200219        0.89941562858564
C            6.26771786193410       -3.68295057740724        1.09511517942421
C            4.92782702294233       -1.55237244020822       -0.21388607015329
C           -0.13682754905002       -1.36202955583230       -0.78503225427911
C           -3.92117888377276        3.16516073674911        0.53254631438459
C           -4.62962948143239        2.83272330070876        1.84772713151828
C           -3.38939133162664        4.59474576488024        0.58428877922618
H           -4.74415982503176        1.14315016356806       -1.47664038972497
H           -6.84231463469057        0.58824721368294       -2.03907524936542
H           -7.17483062865386       -0.76211943048993       -3.14742156380771
H           -5.62377277010188        0.11265120275218       -3.24729510838589
H           -4.46188076269771       -4.02084121289705        2.98966940139692
H           -4.31926177904914       -5.37770189226113        1.81873713502743
H           -2.87483094848571       -4.71652383834204        2.63929495204500
H           -3.14993626943884       -2.18117153974878        1.68098824669479
H           -2.31529428660264        0.05758299285821        1.86962892758017
H           -2.95213232100163        2.61279731006318       -1.86018569894094
H           -1.53120049831529        3.30219729814853       -1.06748808023552
H           -1.82351886302571        0.33419315457283       -1.69858275291115
H           -1.11053030094451        1.52098294226103       -2.78144586397732
H           -0.85281190275826        1.49724577257655        0.99937310738231
H            0.70583574504817        1.91314713395064       -0.91791206283101
H            2.05306511694823       -0.87456132429414        0.64564470314594
H            2.22961891990201        0.83091058378460        0.16679481967326
H            2.71885327702191        0.07325011119564       -2.17576179304221
H            2.66553635818690       -1.61252895476731       -1.62167928019308
H            4.56405729402201        1.53603382447683       -1.51550160355356
H            6.85693507387566        1.74222422850305       -0.69853898611121
H            8.58187188043297        1.75966374636731        0.90054129307965
H            9.13297408681795        1.13306921728041       -0.67761036814853
H            9.97183803727389        0.65293142442066        0.82130304984894
H            7.00053071356452       -4.31197633448671        1.59892473216361
H            5.38142119208958       -3.58320385208302        1.73101775290490
H            5.98326320919993       -4.14425022030881        0.14353405141496
H            4.36385056982972       -2.46078683459754       -0.07965104576778
H           -0.27540434265465       -1.61282866727307       -1.84271886426650
H           -1.11707274884561       -1.31425394468485       -0.30676897861601
H            0.42809180333505       -2.16354567069208       -0.30810678567557
H           -4.65558483370586        3.09315389489019       -0.27870412247974
H           -3.92870093193684        2.93803659774123        2.66556323543428
H           -5.01530832704431        1.81606716269416        1.84379161247431
H           -5.46051844534924        3.51885241029510        2.00339187502556
H           -2.62855364632748        4.66754301713376        1.35536552816895
H           -2.96388130997843        4.89311508512110       -0.37080042673394
H           -4.20158978901452        5.27398003077039        0.82549866922459
H           -0.87724495491308        2.69816512565015        2.86274420613722
