25
 energy: -42.138004562254 gnorm: 0.002910706528 xtb: 6.6.1 (8d0f1dd)
C            3.36808070974163        1.05040788880391       -0.02552312143139
N            2.37844433153405        0.00810448753893       -0.03412569918243
C            2.60474087328989       -1.31029734486264       -0.01164242248908
N            1.42177148794137       -1.97813047158255       -0.00010303778075
C            0.41728618224761       -1.05595369523755       -0.01352483400929
C            1.01281517435050        0.20205133340287       -0.03544806457080
C            0.25326955500994        1.40942106282173       -0.06525685378479
O            0.66728867224045        2.55020584561092       -0.11959007366620
N           -1.16559311656073        1.14304790447683       -0.01397878631328
C           -1.98610634424635        2.20572324557850        0.00984122086291
C           -1.77052029027751       -0.14070573365705        0.01066505126829
O           -2.96761969940695       -0.26563545973932        0.04313041344043
N           -0.92033684877528       -1.24529296434413       -0.00664389542879
C           -1.49813319787605       -2.57527091825665       -0.01011381161788
H            3.89634098215442        1.06571162415378        0.92979644234393
H            4.09352481663066        0.89194471623452       -0.82363002412506
H            2.86870594874749        2.00796383467873       -0.16943828885455
H            3.57003230118142       -1.77358826893910       -0.00307297200661
H           -1.53624196684290        3.18157585366112       -0.01051768304034
H           -3.06573511239876        2.05846589473937        0.07210843040609
H           -4.82715953235167        2.08033684789673        0.32907442674950
H           -1.19137184956656       -3.12775692328992        0.87851861459734
H           -1.19993344321035       -3.11524286683935       -0.90944171546133
H           -2.58199036338477       -2.46686424631678       -0.00356345071861
H            1.31887224392813       -2.98198310493250        0.01365175271278
