  72
        -99.38499864
 N         -2.4991537058        2.6995776225        2.6629731880
 C         -1.9161023207        2.1875072630        1.5704681704
 C         -2.9029670415        2.0216659040        0.4656899231
 C         -3.4600172534        0.6024332429        0.4334519585
 C         -4.3760950175        0.2354778291       -0.5128983836
 C         -4.8983534880       -1.0598082283       -0.5999306732
 O         -5.7887227097       -1.4856427159       -1.5197165654
 C         -6.3020931015       -0.5791946508       -2.4644130944
 C         -4.4672780930       -2.0590179242        0.3415454482
 O         -5.0252894147       -3.2759164148        0.1455956378
 C         -4.7190587704       -4.3121950082        1.0471823979
 C         -3.5722358047       -1.7402009601        1.3071188989
 C         -3.0152169668       -0.3659901301        1.4829499378
 C         -2.3134074177        2.4025826822       -0.9109663673
 C         -1.4163122457        1.3229287666       -1.5365722357
 C         -0.1241688782        1.1488092007       -0.8386075798
 N          0.4583012427       -0.0274066260       -0.5618486423
 C          1.8504679440       -0.0631458399       -0.1803825341
 C          2.7747643085       -0.3051521215       -1.3908362787
 C          4.2147817664       -0.2033683079       -0.9753986782
 C          4.8962983125        0.9965519760       -1.0718075719
 C          6.2206829307        1.0949016513       -0.6703804371
 C          6.8858584683       -0.0069868764       -0.1568308177
 O          8.1702445490       -0.0264949919        0.2605624394
 C          8.9376214023        1.1494160500        0.1560990185
 C          6.1929494703       -1.2411778657       -0.0474519756
 O          6.9163476366       -2.2640958373        0.4620041102
 C          6.3209520375       -3.5335040998        0.5719687801
 C          4.8721693246       -1.3171184221       -0.4552519274
 C         -0.1381642788       -1.2846549766       -0.9420967669
 C         -4.0398684851        2.9959764621        0.9372050335
 C         -3.9061906029        2.9445010111        2.4682380314
 C         -3.8728305748        4.4338270342        0.4559004324
 H         -4.6991580151        0.9670321506       -1.2369951036
 H         -6.8274361712        0.2513795650       -1.9825627754
 H         -7.0086551381       -1.1505797691       -3.0634473150
 H         -5.5146789307       -0.1854285873       -3.1157496341
 H         -5.0155591291       -4.0535889421        2.0685297723
 H         -5.2940559789       -5.1726215929        0.7112283035
 H         -3.6527482759       -4.5584951817        1.0288087835
 H         -3.2451067541       -2.4719555644        2.0274680464
 H         -1.9148591092       -0.4152606551        1.5012605436
 H         -3.1348865761        2.5899945149       -1.6010769282
 H         -1.7422048516        3.3249084217       -0.8092543014
 H         -1.9660970405        0.3857784721       -1.5982376219
 H         -1.2074427022        1.6473811884       -2.5657347406
 H         -0.8754350468        1.9375376650        1.5434901937
 H          0.4454244029        2.0316598137       -0.5982040054
 H          2.0000841753       -0.8571331643        0.5562613786
 H          2.1194835822        0.8882753345        0.2829579223
 H          2.5530607539        0.4458668126       -2.1512692725
 H          2.5740720737       -1.2921639718       -1.8093833041
 H          4.4033470252        1.8676958291       -1.4764719260
 H          6.7280941558        2.0404781781       -0.7689696670
 H          8.5181145898        1.9583573387        0.7625622194
 H          9.0254528652        1.4802042931       -0.8834124153
 H          9.9237912373        0.8892200125        0.5358628723
 H          7.0919445081       -4.1834720177        0.9813063844
 H          5.4633384034       -3.5184708719        1.2529250411
 H          6.0064332356       -3.9165759751       -0.4041286585
 H          4.3391212987       -2.2526541231       -0.3870524003
 H         -0.0976054405       -1.4386805795       -2.0240558622
 H         -1.1803162218       -1.3280732796       -0.6265183419
 H          0.4022742623       -2.0941325640       -0.4559795184
 H         -5.0136196661        2.6228842206        0.6199125655
 H         -3.2968347094        0.0084595572        2.4789626527
 H         -4.5034376466        2.1291104633        2.8949055848
 H         -4.2073388779        3.8779879456        2.9456423307
 H         -2.9043643503        4.8315157315        0.7493112946
 H         -3.9717915902        4.5103808507       -0.6222028032
 H         -4.6468892275        5.0539087084        0.9022505495
 H         -2.0382694518        2.8348196156        3.5463565351
