25
 energy: -42.094241907904 gnorm: 0.009714865253 xtb: 6.6.1 (8d0f1dd)
C            3.16159332594771        1.39502138787386        0.02582995676554
N            2.35048490193495        0.26040975079500        0.03581255351552
C            2.55775504202531       -2.31698068128982        0.23439845999096
N            1.27539516237482       -2.23293490598448        0.18648987694557
C            0.46095837068535       -1.11139702048727        0.06557280756812
C            1.06308777666233        0.16267894739998        0.03014246308202
C            0.14455864506434        1.35512659823637       -0.01501756653581
O            0.56407280351225        2.48826272940028        0.00684778481355
N           -1.19042984796456        1.06111966474621       -0.08434428215411
C           -2.14219976323635        2.16556591481899       -0.14026790581140
C           -1.76361313126148       -0.19666286451012       -0.10271079325182
O           -2.94944006981704       -0.35950114856483       -0.18664902014212
N           -0.88175392400087       -1.28404033210613       -0.01050625453104
C           -1.48448679651245       -2.60505676081158       -0.01516076978434
H            3.92460958840426        1.28708864599498       -0.74985043133521
H            2.57535664847788        2.30472319542664       -0.14776218687361
H            3.67862189094683        1.48741566529951        0.98691193806214
H            3.20117950742050       -1.44198164363872        0.18083362250771
H           -1.59005132494566        3.10160117847624       -0.14224465786771
H           -2.74704064670738        2.07797432298128       -1.04242867371289
H           -2.80516651038610        2.11949973228301        0.72360157624288
H           -1.32403127559385       -3.11568438440645        0.93653010157178
H           -1.11237742021923       -3.20362101107342       -0.84821577265762
H           -2.55886905309805       -2.46484042710973       -0.14705187941066
H            0.75221761438652       -3.11554801215082        0.25041067090199
