25
 energy: -42.103967945310 gnorm: 0.002583259536 xtb: 6.6.1 (8d0f1dd)
C            3.25827593360239        1.06053381978505       -0.03820183153037
N            2.31455360306525       -0.02450788015454       -0.02955287259800
C            2.59287474552924       -1.32499546281705       -0.00799522202596
N            1.44317621527375       -2.03985240318863        0.01682995054164
C            0.40043092156857       -1.16259109753675        0.01045288347055
C            0.94299828979489        0.11612052607152       -0.01727737168283
C            0.13293589949650        1.29591391637038       -0.05067574810206
O            0.50048560497659        2.44911194666355       -0.09894773284995
N           -1.26656013158163        0.96696472458856       -0.02758892744417
C           -2.13624427708945        1.98403970678468       -0.05155134280962
C           -1.82259070579103       -0.34704101875350        0.01574487967857
O           -3.01065030846298       -0.51655892399413        0.04042833307686
N           -0.92523600390168       -1.41042257510421        0.02599966981323
C           -1.44589391910899       -2.76560118360701        0.04730756459201
H            3.72210151630086        1.16757157165168        0.94383233214812
H            4.03743022473525        0.87813730809682       -0.77689359773850
H            2.72997296795549        1.98287393709728       -0.27637698384149
H            3.57565460555382       -1.75189877757799       -0.01210199689237
H           -3.56387802796797        4.85418883187600        0.25478080498736
H           -1.74158472518781        2.98367908435320       -0.08041636708319
H           -3.18722222127396        1.76721759310739       -0.04422630113590
H           -1.13946214011481       -3.27766811628968        0.95960107549530
H           -1.10375611549834       -3.31654262619738       -0.82882132273798
H           -2.53280811121979       -2.70256331776547        0.02521647624306
H            1.38542767344206       -3.04787104183568        0.03160526631418
