72
 energy: -99.629206562446 xtb: 6.6.1 (8d0f1dd)
N           -1.46764292470649        3.25987914470551        2.17769005779173
C           -1.46908450203773        2.39105768045815        1.26164549089632
C           -2.64440467187870        2.15452025106966        0.33328484592354
C           -3.14158902086869        0.61921193895634        0.39233650522291
C           -4.15771462531614        0.08612831730319       -0.40693527418265
C           -4.64480235034469       -1.23824388550831       -0.25874327471423
O           -5.93980254611770       -1.49966446014940       -0.55238262211163
C           -6.23070292903848       -1.54050639592210       -1.91462211756697
C           -4.08744638846763       -2.34813827011305        0.40554299560118
O           -4.70362094867893       -3.64219686944002        0.16249552769074
C           -5.48833189842984       -4.44101917435892        1.08933279864842
C           -3.13603363153206       -1.76376462869572        1.27522992410143
C           -2.71305283800748       -0.40113090945047        1.27996104248317
C           -2.08399000644538        2.54020984778747       -1.07737446214305
C           -1.19989512104242        1.48947370055222       -1.76237916991695
C            0.13220566292212        1.36392728622337       -1.13144551396592
N            0.64467744645924        0.18385686604963       -0.64038973628887
C            2.01667705752206        0.11329961164780       -0.24596106760302
C            2.95462609064701       -0.39897593630469       -1.36427210573575
C            4.37465669818979       -0.36108602403176       -0.89258801741808
C            5.13665515159251        0.78456424380679       -1.03164386530493
C            6.43846686949820        0.83536625153317       -0.55341840696069
C            6.99914052368651       -0.26132622505806        0.07708848308049
O            8.26678372327177       -0.32654601792030        0.57682687168310
C            9.09778374410281        0.79653504506308        0.43947108599510
C            6.22739585850348       -1.43454621208795        0.23330855146351
O            6.86076107972116       -2.46421026861432        0.86345187586212
C            6.17181274919213       -3.67519693685049        1.03447062079228
C            4.93193127482213       -1.46525112977777       -0.24618535575717
C           -0.09371242656214       -1.04182279536059       -0.76903430912002
C           -3.76487837552020        3.24061198783830        0.59355177019968
C           -4.38887136048332        3.09177899645729        1.97468401490984
C           -3.33342193978286        4.72256485174507        0.44918057788324
H           -4.71152699649186        0.73538771882916       -1.07375191806608
H           -6.97193818982125       -0.76727617306616       -2.05633654413884
H           -6.60453809718449       -2.54805516221252       -2.10817673629163
H           -5.33588892749685       -1.35304863319872       -2.51243399726067
H           -6.33510613063636       -3.87655478502424        1.48597215060905
H           -5.94140503973232       -5.33783208229794        0.62328049587298
H           -4.86688725599082       -4.84919060341784        1.89595571100558
H           -2.78225181044279       -2.35618244532911        2.09435611710376
H           -2.03630798597900       -0.11658469274425        2.07743248221287
H           -2.92019530481875        2.77423991801812       -1.74134429637472
H           -1.49507113097382        3.45935938968017       -0.98126812117256
H           -1.73972017972676        0.54681413131484       -1.75758238178718
H           -1.08969150594806        1.80826621724621       -2.81011928115991
H           -0.57108770964047        1.83350215889881        0.96682991153031
H            0.78363081939274        2.21970433440526       -1.08549257293423
H            2.09944006763949       -0.55041414666331        0.62131324895357
H            2.34896021079278        1.10969363677861        0.05581289716143
H            2.82702681938303        0.24114610653510       -2.23889474499516
H            2.66628234895607       -1.41622385180356       -1.63359331555667
H            4.72048615330065        1.65066816619064       -1.52505741711035
H            7.00830377236186        1.74151779340975       -0.68499716358195
H            8.69179056277134        1.66859359803063        0.96379681085794
H            9.26376153793668        1.05223377583829       -0.61295561801809
H           10.04634259256778        0.51467600101459        0.89412981396613
H            6.87306979942030       -4.34130234844310        1.53487791399620
H            5.28267552712369       -3.55160639230274        1.66245751216740
H            5.87983128974712       -4.11517218338662        0.07462895726733
H            4.33308633618097       -2.35603441724781       -0.13388658749406
H           -0.32805192272494       -1.27673410782471       -1.81302794476196
H           -1.03083282635192       -0.96933692277677       -0.20888196440757
H            0.49163107665807       -1.85667095073263       -0.35208064790492
H           -4.54303135634314        3.08038340961840       -0.16070836086471
H           -3.65991076072050        3.36444652996863        2.73117010238623
H           -4.70421716660215        2.06562651908350        2.13446297397541
H           -5.24960966193901        3.75075796803749        2.07067726164262
H           -2.55150693136871        4.98123876714313        1.15726915579801
H           -3.00270996339985        4.99610001777454       -0.55040907161454
H           -4.19322377246184        5.35741809754651        0.67322086329024
H           -0.58929805079124        3.37422514289160        2.68428664556711
