25
 energy: 0.000000000000 xtb: 6.6.1 (8d0f1dd)
C            3.23720163006194        1.16630919979326        0.08434469647475
N            2.29877817382611        0.07527477071623        0.03981603040599
C            2.58028210190900       -1.21425402444508        0.03006176031096
N            1.43813958087363       -1.93419271955128        0.00098261760884
C            0.39035688448383       -1.05887472636071       -0.00790371836672
C            0.93510056364412        0.21347819449412        0.01709077491437
C            0.09450143893243        1.40504303904423       -0.00410947031874
O            0.49712751527797        2.54126714362870       -0.00342325688240
N           -1.25076640035757        1.06271879480407       -0.03085478223738
C           -2.21907211982101        2.15522099834493       -0.05001256985998
C           -1.81739487048744       -0.20012725993278       -0.04692818574614
O           -2.99983886758376       -0.37846417018721       -0.07008878229737
N           -0.92618586207120       -1.30210215599479       -0.03682761578324
C           -1.46982264913417       -2.64643102187190       -0.06029820460571
H            3.71247264356769        1.21471455160235        1.06488849150277
H            4.00791497605742        1.03430808813993       -0.67357694370751
H            2.69910007168542        2.09770118228144       -0.09130154882931
H            3.56654120610678       -1.63682992603973        0.04233140067262
H           -1.67107961066214        3.09322851271934       -0.02552706933167
H           -2.82428953597071        2.09428624779827       -0.95318082946668
H           -2.87644029173232        2.07745725625962        0.81450067533302
H           -1.17061996399332       -3.19584890659852        0.83242232437030
H           -1.14560257411436       -3.17511610292205       -0.95688275822323
H           -2.55549792440841       -2.55659984320617       -0.07459039797972
H            1.38130855184625       -2.94313852034425       -0.01389874181052
25
 energy: -3.406370130996 xtb: 6.6.1 (8d0f1dd)
C            3.24992289288732        1.19233164085933        0.09305910974356
N            2.31847646891582        0.10461290532379        0.04178012142839
C            2.61799642653809       -1.22013634601927        0.03321719831858
N            1.45025097374911       -1.93696177290229        0.00154532473664
C            0.40651666294495       -1.06343995517257       -0.01115401489380
C            0.93929197307284        0.21986462039409        0.01627819793877
C            0.11139342224921        1.39316053520476       -0.00381817567154
O            0.50661466363613        2.55933747242651        0.00060108611104
N           -1.24880373853470        1.04662351462229       -0.03648556414279
C           -2.21180777512783        2.13927545086313       -0.06050470152908
C           -1.81206742366632       -0.20348844429361       -0.05180811619767
O           -3.00793630231589       -0.38545885122856       -0.08402098612241
N           -0.93265161548485       -1.30789336812164       -0.03472572535225
C           -1.52964008344845       -2.63341983042285       -0.04609552126351
H            3.74205870575580        1.22973845817122        1.06877512981490
H            4.01048923958885        1.07360872717658       -0.68041201705798
H            2.69832387738789        2.11752132392555       -0.06354489810306
H            3.60101657566962       -1.63594804831635        0.05033526568088
H           -1.65503429707979        3.07302695372114       -0.03195478894218
H           -2.81145679423913        2.08245541872105       -0.96842944931253
H           -2.87357989050866        2.06380242343361        0.80153899725540
H           -1.12468697695355       -3.23555411286661        0.77136759172546
H           -1.28327451033271       -3.14968452207025       -0.94806214761113
H           -2.64647422844401       -2.59337160790474       -0.01899645806359
H            1.39727642167647       -2.94097398335226       -0.01145156234281
25
 energy: 2.246288861646 xtb: 6.6.1 (8d0f1dd)
C            3.26345904685733        1.22452518774574        0.10662246991407
N            2.33942877601500        0.13682178021854        0.04597243790390
C            2.66170163123912       -1.21830968093951        0.04084791841210
N            1.47344167850985       -1.93373401400398        0.00485367854476
C            0.42683542272824       -1.07629005914076       -0.01213683176007
C            0.94290355269418        0.22261205070367        0.01619207258305
C            0.13565985932253        1.37153548929158       -0.00314127750173
O            0.51072142215793        2.56091062232059        0.00855887221861
N           -1.24394122945054        1.02668542752169       -0.04745002472087
C           -2.19888801726120        2.11963387220750       -0.07975194787821
C           -1.79537284515682       -0.21013764863037       -0.06291410375211
O           -2.99894664179125       -0.39439214158006       -0.11215795764097
N           -0.93798058105696       -1.32083500188877       -0.02789309577052
C           -1.61025568293341       -2.62106763794543       -0.02296936847710
H            3.78781886071914        1.24670533114514        1.07006098464685
H            4.00854565973738        1.13881685541898       -0.69136596681849
H            2.69721565544463        2.14717199382559       -0.01299157819082
H            3.64467287822815       -1.61903571128917        0.06564384335314
H           -1.63296035469804        3.04840951072950       -0.04368882329013
H           -2.78902248943906        2.06568550740432       -0.99468517490156
H           -2.86938357401506        2.04365828954676        0.77600698882128
H           -1.05072452562339       -3.30216653599525        0.67379222072919
H           -1.52970948664519       -3.10929857254219       -0.97096911185888
H           -2.76254828438558       -2.62331870335752        0.10750000449856
H            1.43954393673921       -2.93555760859456       -0.00690233291677
25
 energy: 11.218516919559 xtb: 6.6.1 (8d0f1dd)
C            3.27166784093616        1.25152756051187        0.11768268527487
N            2.35610140075107        0.15690630613131        0.05052709105922
C            2.69582083098469       -1.21057200152006        0.04837946204353
N            1.50405591939150       -1.93030054113581        0.01176721309121
C            0.44573018274604       -1.09476421913936       -0.00554506873460
C            0.94929122656937        0.21791056079408        0.01908810529399
C            0.15534659760458        1.35727828632011       -0.00092391789536
O            0.51223999197328        2.55610101790450        0.01668736434591
N           -1.23639835809590        1.01310253283532       -0.05893553252944
C           -2.18691597556501        2.10368199554448       -0.09988291672660
C           -1.77643090816495       -0.22060212696280       -0.07791559181417
O           -2.98306635533531       -0.40489240020289       -0.14544504613451
N           -0.93608415734160       -1.34030583231796       -0.01540134410191
C           -1.67333707580868       -2.61888722622226        0.00200771033661
H            3.82993072826400        1.25655966265959        1.06531797530483
H            3.99843453580039        1.20523972694324       -0.70528552270086
H            2.69398168900826        2.17453170682172        0.04118103243982
H            3.68420901650803       -1.59430111387102        0.07952501150347
H           -1.61620452271180        3.02900149011326       -0.05526868411963
H           -2.76641808668771        2.05001901988643       -1.02176224766409
H           -2.86626686311190        2.02385065483954        0.74866312499047
H           -1.00407900322737       -3.36593893503658        0.56487532668224
H           -1.78989742323360       -3.05678217642971       -0.99752344225023
H           -2.84628248899759       -2.63592209893727        0.24642758266394
H            1.49678592568019       -2.93341324735766       -0.00120647421141
25
 energy: 17.234176269187 xtb: 6.6.1 (8d0f1dd)
C            3.27488275215554        1.26908681764684        0.12157061227617
N            2.36697488357457        0.16393044538593        0.05280562784793
C            2.71612963965184       -1.19954853804741        0.05157279128591
N            1.53383292383759       -1.92690064406693        0.02065229020134
C            0.45844115088393       -1.11335761184260        0.00949494122175
C            0.95677191453567        0.20804429779246        0.02497331147557
C            0.16811309932932        1.35059843585491        0.00302271179799
O            0.51280842133988        2.54593578901659        0.02516387506136
N           -1.22757566728876        1.00548984373267       -0.06705795183605
C           -2.17722458445399        2.09253926166194       -0.11347869634075
C           -1.76025315751955       -0.23199500300896       -0.09474957584335
O           -2.96526781017497       -0.41415144531537       -0.18040280894146
N           -0.93222163329203       -1.36076546918037        0.00007816884809
C           -1.71628425177983       -2.62309225781234        0.02117196383643
H            3.86458959649425        1.25766506525135        1.05122928862366
H            3.98094962322492        1.26041548416614       -0.72359180272302
H            2.68994926740976        2.19278448872227        0.08702145234357
H            3.71254383054398       -1.56809428176615        0.08478211085481
H           -1.60572765669106        3.01626170667753       -0.06058100842345
H           -2.74817964833881        2.03904451688054       -1.04035483997324
H           -2.86320469637709        2.00712381941999        0.72903278200322
H           -1.01883337485350       -3.40230074888883        0.46451751742787
H           -1.96965571332137       -2.99488398647328       -0.97568621971147
H           -2.89396601169291       -2.65212996701787        0.33325392033208
H            1.55462177073880       -2.93267141661700        0.00259343450228
25
 energy: 19.066080660322 xtb: 6.6.1 (8d0f1dd)
C            3.27291580956311        1.27245861924526        0.12072219486697
N            2.37002319288010        0.15793783749267        0.05388209718634
C            2.71748188825004       -1.18763560796847        0.05424377138595
N            1.55400188015106       -1.92372287258086        0.03166423122070
C            0.46200780551602       -1.12519049514115        0.02807899470756
C            0.96291946443133        0.19786729760853        0.03169921033104
C            0.17199041200960        1.35215008631883        0.00523149405202
O            0.51301484132614        2.53573053253209        0.02941913842366
N           -1.21902978167305        1.00305304363574       -0.06983502850482
C           -2.17204401284800        2.08683551424178       -0.12380028953336
C           -1.75075425607954       -0.24233023111906       -0.10216711543156
O           -2.95062136684762       -0.42200043473480       -0.21089623538836
N           -0.92755286787711       -1.37553506664985        0.01930023566909
C           -1.72651919107093       -2.63339045424608        0.03274608192159
H            3.88030637115527        1.24937769608101        1.03449367073734
H            3.95992655271749        1.28568242728671       -0.73516601433252
H            2.68793340688995        2.19388720387482        0.11256779667758
H            3.72072503529948       -1.54781525140655        0.09005562521611
H           -1.60453891088866        3.01199670557317       -0.06688768524539
H           -2.73754600877485        2.03265328196186       -1.05335724962538
H           -2.86254862073727        1.99974279048928        0.71447822055829
H           -1.03205822454739       -3.42678314652558        0.35805125474170
H           -2.08031071464461       -2.90043392843906       -0.94456958711296
H           -2.89413569890915       -2.67441828007135        0.40686069420256
H            1.59662766264469       -2.93108866528687        0.01021838942309
25
 energy: 20.482572442206 xtb: 6.6.1 (8d0f1dd)
C            3.27019312962292        1.26840135437775        0.11888850684492
N            2.36937571288589        0.15066482876813        0.05611707056336
C            2.71100096996072       -1.17947933483280        0.06105221300893
N            1.56165246833992       -1.92245236566894        0.04856852014998
C            0.46241554311899       -1.12686293747865        0.04963261704165
C            0.96581467389113        0.19465382782290        0.03957066442307
C            0.17115007486217        1.35505958286760        0.00474563321571
O            0.51432627319999        2.53340612878473        0.02610923786102
N           -1.21307322836731        1.00070311825991       -0.06954310150350
C           -2.17091414675161        2.08295481095941       -0.13763445392957
C           -1.74591630855345       -0.24950054112019       -0.09521107148202
O           -2.94101913366272       -0.43094455434621       -0.22857107432823
N           -0.92071371329851       -1.37930396335610        0.05018567558769
C           -1.71475242832283       -2.63974007475121        0.04112885902329
H            3.88326537295159        1.23728837367376        1.02364382734067
H            3.94264758446442        1.28520944229683       -0.74179075210454
H            2.68499219193263        2.18514230425367        0.12131885596231
H            3.71586350068694       -1.53923095523946        0.10344579130754
H           -1.60941949158655        3.01200696196561       -0.08301421477575
H           -2.73217770126558        2.02504706175456       -1.06940072896351
H           -2.86585154028800        2.00157151059017        0.69745627529252
H           -0.98283554064177       -3.47880223508478        0.22508187993740
H           -2.19398066146167       -2.76680365884775       -0.94913607332706
H           -2.86273747372608       -2.70117277403190        0.50384360719951
H            1.61290853994491       -2.92878730944496        0.03054613180182
25
 energy: 18.212605671230 xtb: 6.6.1 (8d0f1dd)
C            3.26706906085146        1.26077576703123        0.11307358215393
N            2.36508559936088        0.14223684398735        0.05481794544426
C            2.69937038255668       -1.17574585909799        0.05997243726033
N            1.55785014471488       -1.92391620003912        0.05826887777076
C            0.45872317278145       -1.12212899716695        0.06294902535214
C            0.96540662954709        0.19529106704291        0.04540692094108
C            0.16523908363146        1.35635333920622        0.00573082088078
O            0.51575630311453        2.53257813354078        0.02530461817408
N           -1.21045143275307        0.99866534901455       -0.06562704863774
C           -2.17195338755056        2.08142401921428       -0.13880153590769
C           -1.74659214140624       -0.25291518142696       -0.09004757245639
O           -2.93679362079871       -0.43766004438872       -0.23059707661011
N           -0.91454499608275       -1.37504229271223        0.06704294188715
C           -1.69472907573410       -2.64147121878041        0.03240769770600
H            3.88112848207463        1.22565593746406        1.01526765921891
H            3.93228098895520        1.27332748938162       -0.75095785283747
H            2.68030023774466        2.17550519827213        0.11807627237064
H            3.70280034088834       -1.54173795931925        0.10597593509908
H           -1.61426983522699        3.01371363773798       -0.08726050725320
H           -2.73265251731756        2.02172063890684       -1.07080417512395
H           -2.86754449558578        2.00438213830521        0.69610342762920
H           -0.99660181895789       -3.46482203751802        0.15957033778916
H           -2.18610395517605       -2.70086743911413       -0.90944660137870
H           -2.81057175282875       -2.72766351895062        0.50733877222411
H            1.60401327113333       -2.92863020841867        0.04326899445086
25
 energy: 17.826925445989 xtb: 6.6.1 (8d0f1dd)
C            3.26814797457674        1.26167711703269        0.11127732673241
N            2.36590745526613        0.14442875317505        0.05440340512166
C            2.70212095794451       -1.17840439638873        0.06140086715544
N            1.55576020451687       -1.92662827997071        0.06673927151307
C            0.46082819360512       -1.12025021012080        0.07210065199007
C            0.96473989195849        0.19790540055627        0.04916688271834
C            0.16397832614980        1.35394245977450        0.00655101821423
O            0.51700446122508        2.53473182133663        0.01992361314268
N           -1.21178058688035        0.99662350161674       -0.06402454565784
C           -2.17289061220967        2.07960880600011       -0.14293719869564
C           -1.74586591490844       -0.25345317654303       -0.08247270943203
O           -2.93614915021475       -0.44209207492586       -0.22727118472098
N           -0.91125240291647       -1.37287346865350        0.08539259605691
C           -1.69296919109681       -2.63937417510901        0.02684673904149
H            3.88267796747234        1.22730749210220        1.01465297356207
H            3.93406294651621        1.27148053740792       -0.75441368631189
H            2.67881923198571        2.17610385402001        0.11463890086855
H            3.70347406614016       -1.54753986293410        0.11278503587031
H           -1.61442072721687        3.01199722997594       -0.09464050786614
H           -2.73217851124280        2.01590408327003       -1.07570325166208
H           -2.86910589804323        2.00567982236680        0.69174669941713
H           -0.98053952648253       -3.47309413433406        0.09998048813898
H           -2.22411942491869       -2.65064283964193       -0.90674329805584
H           -2.78990269117726       -2.75294471326902        0.53182747136057
H            1.59586762788682       -2.93106494457205        0.05580633764581
25
 energy: 16.665216962211 xtb: 6.6.1 (8d0f1dd)
C            3.26982741373476        1.26321078871367        0.11075022089759
N            2.36682840356023        0.14889654449074        0.05236417466886
C            2.70827119100822       -1.18574389759263        0.05996671725282
N            1.54987206700242       -1.93085903815988        0.07134179890307
C            0.46368980709406       -1.11720469054080        0.07450091170997
C            0.96338713418483        0.20145813887448        0.04989022104244
C            0.16133550951135        1.35017357468749        0.00567618313330
O            0.51820230987517        2.53731095142137        0.00981656528345
N           -1.21627610942638        0.99553702606509       -0.06196386076914
C           -2.17538874126598        2.07920092993372       -0.14440597709484
C           -1.74684619088676       -0.25190332439261       -0.07157492117587
O           -2.93910995800304       -0.44570391861286       -0.21150318745845
N           -0.90873359246900       -1.36977419459406        0.10309841572707
C           -1.69058873330931       -2.63754584395034        0.01452472364861
H            3.87553539198901        1.23794185150632        1.02170746882822
H            3.94746809008817        1.26341029050966       -0.74789610328244
H            2.68038283592876        2.17832151591361        0.09886513022391
H            3.70574209389377       -1.55934097785557        0.12120302875370
H           -1.61388883957922        3.01024464412239       -0.10064929648483
H           -2.73483494141416        2.01096091207507       -1.07688677415790
H           -2.87072813991941        2.00824664797064        0.69119048153331
H           -0.96958406856277       -3.46309793582754        0.04895415317928
H           -2.25112577946191       -2.61190696439174       -0.90315029334424
H           -2.75804016830693       -2.78726217293901        0.54536262045860
H            1.57681768267023       -2.93554225525512        0.06585149467074
25
 energy: 16.131266869627 xtb: 6.6.1 (8d0f1dd)
C            3.26947855768174        1.26197697865826        0.11135347608428
N            2.36587982542850        0.14844259846143        0.05177635030861
C            2.70844357818499       -1.18779448518549        0.05791008432010
N            1.54750581820386       -1.93097402277345        0.07057243018626
C            0.46293578757742       -1.11670742920334        0.07244962669212
C            0.96326316093820        0.20075915269484        0.04878717019623
C            0.16018841219368        1.35043664570648        0.00338639333955
O            0.51810409695570        2.53637400164421        0.00487504427323
N           -1.21757127361081        0.99723377449543       -0.06156937935061
C           -2.17611816541337        2.08096270350780       -0.14485095650847
C           -1.74808384695472       -0.25041858973798       -0.06625249749258
O           -2.94105983304919       -0.44481631633935       -0.20038445813888
N           -0.91000002668203       -1.36931262972843        0.10850423478550
C           -1.68987468583452       -2.63801751271601        0.01124412293560
H            3.86849764435748        1.24232667816613        1.02728475041005
H            3.95440544454104        1.25705301612249       -0.74180701220003
H            2.68150060030753        2.17818324922417        0.09002626724492
H            3.70504059981381       -1.56145765345836        0.12448878230719
H           -1.61396983923042        3.01145965933346       -0.10280661371470
H           -2.73638276882181        2.01157557151788       -1.07672146795305
H           -2.87105604460072        2.01115084893308        0.69114379086339
H           -0.96424888856856       -3.46394061822222        0.03458042726626
H           -2.25085685251575       -2.60147352850994       -0.89942894405708
H           -2.74484168911709       -2.79795625855527        0.54665807714521
H            1.57103505615116       -2.93603723186372        0.06581419720418
25
 energy: 15.326044413632 xtb: 6.6.1 (8d0f1dd)
C            3.26890692493368        1.26087995563320        0.11241991630236
N            2.36513831440442        0.14778272469257        0.05146895018213
C            2.70887910571054       -1.18852151192599        0.05472137757385
N            1.54733524580743       -1.93035866755512        0.06934666346773
C            0.46297000487035       -1.11704085099931        0.06914757542985
C            0.96393647104002        0.19927174771282        0.04759435740483
C            0.15978438056648        1.35098315832543        0.00120933107221
O            0.51743480505734        2.53502833996029        0.00138988838398
N           -1.21771024599896        0.99796558069629       -0.06159357140820
C           -2.17639883298162        2.08145411638498       -0.14534021729429
C           -1.74821817667674       -0.25059893511097       -0.06195398397906
O           -2.94205621297155       -0.44535895349761       -0.19074171101209
N           -0.91016703266302       -1.37048385577298        0.11159109001027
C           -1.68792489139932       -2.64002943775216        0.00852113966717
H            3.86080677598171        1.24626584342679        1.03386486939822
H            3.96107076455067        1.25070107385379       -0.73535153216966
H            2.68228600852348        2.17832252555097        0.08171393102940
H            3.70517030826339       -1.56074088729526        0.12790337221706
H           -1.61447420890181        3.01192408676200       -0.10406792826334
H           -2.73734847837416        2.01204627295570       -1.07682211241543
H           -2.87143732731732        2.01254427884397        0.69070596015688
H           -0.96556898202108       -3.45921165747917        0.02607331260918
H           -2.25925317311412       -2.59320814349412       -0.90004231874359
H           -2.73037775599660       -2.80486407462985        0.55135029095317
H            1.56943087664291       -2.93572412711414        0.06392524557459
25
 energy: 15.473045314280 xtb: 6.6.1 (8d0f1dd)
C            3.26860053373843        1.26090241443455        0.11248717982075
N            2.36481258942840        0.14778927393625        0.05165535260181
C            2.70860487965702       -1.18783166991891        0.05344053975215
N            1.54811634420324       -1.92989064637661        0.06929216777292
C            0.46263012261962       -1.11764964472377        0.06861204087360
C            0.96384821134880        0.19881704929522        0.04778296228278
C            0.16057652128414        1.35118561328339        0.00182319030522
O            0.51728401840919        2.53481724900547        0.00277068260320
N           -1.21703506020938        0.99787522602885       -0.06197257618799
C           -2.17581276213961        2.08124150229488       -0.14542482777963
C           -1.74800179760228       -0.25056334271580       -0.06284188003830
O           -2.94203606218636       -0.44435431138923       -0.19225225957463
N           -0.91084910435567       -1.37084299699577        0.10997942157161
C           -1.69046144714368       -2.63931060246988        0.00878799284240
H            3.86083420517418        1.24583500868623        1.03414427618467
H            3.96074699594102        1.25088947050837       -0.73563621069076
H            2.68220343423164        2.17881135483286        0.08227381296738
H            3.70541370343930       -1.55872263377695        0.12797356939610
H           -1.61422154972051        3.01189998424106       -0.10317131014220
H           -2.73635251497175        2.01252758290011       -1.07726929320148
H           -2.87129459079548        2.01172075086807        0.69025241189904
H           -0.96560012919463       -3.46054253915859        0.02761439105830
H           -2.25825230210951       -2.59770934101860       -0.89853302118764
H           -2.73361658688620       -2.80257149444651        0.55295540231940
H            1.57207701577619       -2.93529465515258        0.06228988069857
25
 energy: 15.447836110585 xtb: 6.6.1 (8d0f1dd)
C            3.26842300693570        1.26103149040872        0.11227934085508
N            2.36457079140628        0.14801619945638        0.05176116260653
C            2.70839547923891       -1.18713459910356        0.05096520818384
N            1.54894691324223       -1.92957903077068        0.06988823256966
C            0.46243729004158       -1.11821429349171        0.06872256426481
C            0.96362673258834        0.19866059446001        0.04814216572703
C            0.16137128844175        1.35131280242556        0.00260820915077
O            0.51696192325245        2.53505262492570        0.00445209368921
N           -1.21645745835126        0.99743093779956       -0.06256251364947
C           -2.17532559832388        2.08069419916806       -0.14545928830191
C           -1.74764263193061       -0.25080488691227       -0.06414286632979
O           -2.94172844399606       -0.44365391560594       -0.19386129798985
N           -0.91119293842261       -1.37127807500196        0.10874888604547
C           -1.69204629064559       -2.63878761335942        0.00974074019695
H            3.86084248061768        1.24580946969834        1.03406507544544
H            3.96067879473629        1.25084513431816       -0.73590655760682
H            2.68247573619537        2.17931417702507        0.08225932364352
H            3.70567335172769       -1.55660812263320        0.12930197575354
H           -1.61407724114527        3.01158796826152       -0.10206283819850
H           -2.73526222851422        2.01272691953941       -1.07774397512709
H           -2.87122225558170        2.01032490363430        0.68979757675863
H           -0.96786587976008       -3.46234874184737        0.02973551711344
H           -2.25994524274746       -2.60069177308719       -0.89818763479145
H           -2.73433612619705       -2.79973757460916        0.55409239527036
H            1.57491321512765       -2.93494019252624        0.06040040086785
25
 energy: 15.221151237546 xtb: 6.6.1 (8d0f1dd)
C            3.26842640993525        1.26084427804945        0.11230514752939
N            2.36445393280227        0.14801633348322        0.05174805860968
C            2.70816438632104       -1.18723854239348        0.04763136611777
N            1.54881071766126       -1.92962397524002        0.07005016888324
C            0.46221409278512       -1.11833719800283        0.06833689805553
C            0.96338360352088        0.19872291054591        0.04823693173876
C            0.16156460978646        1.35134114845844        0.00291921988384
O            0.51671067420233        2.53530533794991        0.00535870561130
N           -1.21655422948515        0.99729986462296       -0.06299945042613
C           -2.17536278316954        2.08062013657507       -0.14541541462945
C           -1.74776154290026       -0.25082740307561       -0.06480569806304
O           -2.94190567271997       -0.44336477183086       -0.19457828349730
N           -0.91141821764453       -1.37128392367226        0.10732494859923
C           -1.69216023562367       -2.63845848939926        0.00960433593815
H            3.86041220964759        1.24587022051507        1.03448266139639
H            3.96124047265319        1.25021991615611       -0.73556559169631
H            2.68271333571442        2.17935389905697        0.08183439809586
H            3.70533760920612       -1.55609959157623        0.13235490405904
H           -1.61408747688798        3.01148075552379       -0.10139436795175
H           -2.73502317983274        2.01316064841082       -1.07785677418132
H           -2.87138804721352        2.00973796391968        0.68964905268719
H           -0.96836965748128       -3.46148232381706        0.03100510505853
H           -2.26021142601716       -2.60189715826982       -0.89870701688099
H           -2.73235236982265       -2.79942154798811        0.55708042690008
H            1.57537745249866       -2.93490988582976        0.05843416430958
25
 energy: 15.014183609270 xtb: 6.6.1 (8d0f1dd)
C            3.26854225701368        1.26074763556824        0.11209402090603
N            2.36464713939840        0.14788406264149        0.05164841254350
C            2.70813191569587       -1.18757492629313        0.04329009729883
N            1.54846158029864       -1.92982702234160        0.07031981049788
C            0.46226452580218       -1.11821281570233        0.06908265800765
C            0.96334083033953        0.19893705811299        0.04857530212250
C            0.16145816412528        1.35127426131015        0.00312468305237
O            0.51659715609911        2.53541711009622        0.00567682481929
N           -1.21687928770839        0.99736296559179       -0.06308537119709
C           -2.17567427302290        2.08076628037095       -0.14533211701529
C           -1.74787065882453       -0.25079795486388       -0.06503486038814
O           -2.94187154969077       -0.44363496617322       -0.19507403310020
N           -0.91119318060220       -1.37103949670989        0.10683165424976
C           -1.69175884877335       -2.63810939122953        0.00989010624620
H            3.86075242094882        1.24564717188472        1.03402548278159
H            3.96108028404088        1.25037633800528       -0.73594951130563
H            2.68264280014107        2.17911150049364        0.08202264910957
H            3.70469492624754       -1.55637978529153        0.13695554620803
H           -1.61427453395920        3.01151310953984       -0.10127003229100
H           -2.73537068099065        2.01335982980347       -1.07769931258369
H           -2.87161255777947        2.00977306118193        0.68976033601211
H           -0.96874065350756       -3.46175168393009        0.03192025548033
H           -2.26041239877898       -2.60236522245279       -0.89877698311397
H           -2.72966969854399       -2.79841319929443        0.55715547112677
H            1.57492898996710       -2.93503531814617        0.05688280667982
25
 energy: 14.896250155590 xtb: 6.6.1 (8d0f1dd)
C            3.26852111250341        1.26065346099860        0.11199349180128
N            2.36479190662995        0.14756831982562        0.05147458831828
C            2.70815623794071       -1.18787497886517        0.03789067823113
N            1.54807713800026       -1.92998900223399        0.07012884828187
C            0.46228171955545       -1.11802184417588        0.06993375355182
C            0.96341978871848        0.19897905871429        0.04894672576239
C            0.16120381519081        1.35121607092342        0.00327257377907
O            0.51662179899126        2.53522840436221        0.00566462588098
N           -1.21707740432738        0.99759000659289       -0.06291942809321
C           -2.17583255763365        2.08106564615890       -0.14531852270434
C           -1.74799284531352       -0.25067139418759       -0.06537965795078
O           -2.94176715811793       -0.44393533288749       -0.19564118269765
N           -0.91097466552432       -1.37076771491822        0.10627739721518
C           -1.69131675416221       -2.63801261750207        0.00978250708137
H            3.86152765150125        1.24482329386818        1.03320717685079
H            3.96010840577755        1.25125456705798       -0.73656157213200
H            2.68237313544335        2.17871935831984        0.08318910727775
H            3.70375000240945       -1.55680786343191        0.14310355485178
H           -1.61432242467160        3.01172611138092       -0.10153986820701
H           -2.73565565161082        2.01339374536522       -1.07758764899529
H           -2.87168755242304        2.01027488163288        0.68987179841638
H           -0.96754334894230       -3.46156387039334        0.03127495421362
H           -2.26052113895264       -2.60193991233119       -0.89865993002530
H           -2.72808641477391       -2.79870552612184        0.55885771733043
H            1.57415987172750       -2.93517426598019        0.05577220810869
25
 energy: 14.851602787115 xtb: 6.6.1 (8d0f1dd)
C            3.26837609910373        1.26077356747039        0.11178313280665
N            2.36484871072159        0.14742012021759        0.05110535048362
C            2.70879197477450       -1.18820306407943        0.02861521438934
N            1.54784239888805       -1.93009459369165        0.06904696159567
C            0.46247274666428       -1.11782521921161        0.07102410537756
C            0.96366734171114        0.19881342019273        0.04962074796119
C            0.16093593932597        1.35111508029643        0.00374075874238
O            0.51669054185451        2.53486562853257        0.00550062736193
N           -1.21703040656283        0.99787416113317       -0.06221561093666
C           -2.17573651347170        2.08134062057888       -0.14519043280640
C           -1.74801631418919       -0.25042442137252       -0.06533055926606
O           -2.94175513624294       -0.44402616740291       -0.19599224782988
N           -0.91071267906934       -1.37057406162359        0.10568246149954
C           -1.69115365649735       -2.63813476674347        0.00965642230229
H            3.86261242500522        1.24369678808918        1.03214380298467
H            3.95870890766040        1.25289914920993       -0.73761947803170
H            2.68187883251368        2.17859060134430        0.08501437526911
H            3.70262611420614       -1.55697224072397        0.15264869549345
H           -1.61419260939101        3.01197826300474       -0.10196767113184
H           -2.73580502103331        2.01312875798708       -1.07732969509550
H           -2.87148222111229        2.01100344654941        0.69018053815242
H           -0.96704103349052       -3.46073891234060        0.03230983627833
H           -2.25972309519497       -2.60352618606131       -0.89828603870247
H           -2.72778019539919       -2.79862098373243        0.55843661188827
H            1.57319151716156       -2.93533038545081        0.05445598736133
25
 energy: 14.920129848228 xtb: 6.6.1 (8d0f1dd)
C            3.26821348525599        1.26074861644706        0.11150067168962
N            2.36453770353474        0.14745954031692        0.05090554173442
C            2.70929377255144       -1.18814980402614        0.02289374044048
N            1.54791201608459       -1.93004732005142        0.06825168023019
C            0.46254286744076       -1.11774269943646        0.07193548147809
C            0.96384109557378        0.19854093403781        0.05022038192653
C            0.16071911949289        1.35115720755542        0.00402701892069
O            0.51669771453488        2.53466896658436        0.00519303954757
N           -1.21670600226776        0.99791025390499       -0.06165928830258
C           -2.17549007762989        2.08126968719285       -0.14531443656685
C           -1.74786749031937       -0.25045016016246       -0.06479522883214
O           -2.94159396610311       -0.44399631024687       -0.19543865896143
N           -0.91057621595491       -1.37062072843674        0.10676618953379
C           -1.69085294632405       -2.63851428258704        0.00981388627868
H            3.86265318955257        1.24330058525329        1.03165947290818
H            3.95826381454034        1.25306497915662       -0.73790542124122
H            2.68204753264210        2.17862244845974        0.08520553858696
H            3.70184186613924       -1.55643596703861        0.15825955295095
H           -1.61415658557082        3.01207546283610       -0.10253852930801
H           -2.73552952229618        2.01257743835019       -1.07743971662764
H           -2.87131794915491        2.01131318459649        0.69002923205192
H           -0.96654295470983       -3.46141378831036        0.03058572604129
H           -2.26014593498501       -2.60138461107551       -0.89811131406089
H           -2.72842256131046       -2.79961683442664        0.55830714820701
H            1.57285269721909       -2.93530819672149        0.05468218752165
