25
 energy: -42.442131669177 xtb: 6.6.1 (8d0f1dd)
C            3.29524234466224        1.27631208777309        0.12135874706402
N            2.40442959698743        0.15251210015298        0.07525590228944
C            2.73603906342805       -1.14695022209930        0.07486183805296
N            1.61300627064056       -1.90187403964166        0.05301325374343
C            0.51642836629964       -1.06587359414919        0.02419239534807
C            1.02230018188470        0.25396738198617        0.03710274914679
C            0.18448801256802        1.38789327114499       -0.00507428363555
O            0.54051612974105        2.56881896188427        0.00906420119049
N           -1.17584347838889        1.02161000122296       -0.06944113204730
C           -2.16292293265399        2.08384207738209       -0.13522594659246
C           -1.69750229365939       -0.23245399288545       -0.07852345854798
O           -2.88707497363097       -0.43939094512206       -0.17737607737417
N           -0.79500112904035       -1.35213685787606       -0.00441019713134
C           -1.43249837578402       -2.55113412359533       -0.10237956934834
H            3.84803935596831        1.27986549191096        1.06436308596357
H            3.99907756353382        1.24050356410457       -0.71263182974032
H            2.69521010739111        2.18633830182887        0.05351041343193
H            3.73031519024988       -1.53987831137715        0.11346551082348
H           -1.61742336381586        3.02235621053786       -0.09975403402664
H           -2.73524258773395        2.01702494073645       -1.05851331206981
H           -2.85275421910697        1.99585192781572        0.70444895732530
H           -0.82156259276451       -3.40571397475172       -0.29104509356380
H           -2.47584129505461       -2.40523164905995       -0.38296520673637
H           -3.72916323478544       -3.39018655226907        0.35499290454578
H            1.55981495042783       -2.91230320724504        0.05643937627336
