25
 energy: 0.000000000000 xtb: 6.6.1 (8d0f1dd)
C            3.23720163006194        1.16630919979326        0.08434469647475
N            2.29877817382611        0.07527477071623        0.03981603040599
C            2.58028210190900       -1.21425402444508        0.03006176031096
N            1.43813958087363       -1.93419271955128        0.00098261760884
C            0.39035688448383       -1.05887472636071       -0.00790371836672
C            0.93510056364412        0.21347819449412        0.01709077491437
C            0.09450143893243        1.40504303904423       -0.00410947031874
O            0.49712751527797        2.54126714362870       -0.00342325688240
N           -1.25076640035757        1.06271879480407       -0.03085478223738
C           -2.21907211982101        2.15522099834493       -0.05001256985998
C           -1.81739487048744       -0.20012725993278       -0.04692818574614
O           -2.99983886758376       -0.37846417018721       -0.07008878229737
N           -0.92618586207120       -1.30210215599479       -0.03682761578324
C           -1.46982264913417       -2.64643102187190       -0.06029820460571
H            3.71247264356769        1.21471455160235        1.06488849150277
H            4.00791497605742        1.03430808813993       -0.67357694370751
H            2.69910007168542        2.09770118228144       -0.09130154882931
H            3.56654120610678       -1.63682992603973        0.04233140067262
H           -1.67107961066214        3.09322851271934       -0.02552706933167
H           -2.82428953597071        2.09428624779827       -0.95318082946668
H           -2.87644029173232        2.07745725625962        0.81450067533302
H           -1.17061996399332       -3.19584890659852        0.83242232437030
H           -1.14560257411436       -3.17511610292205       -0.95688275822323
H           -2.55549792440841       -2.55659984320617       -0.07459039797972
H            1.38130855184625       -2.94313852034425       -0.01389874181052
25
 energy: -2.602127366487 xtb: 6.6.1 (8d0f1dd)
C            3.25082314378976        1.19397908766236        0.09363546205027
N            2.31985636575621        0.10585028138363        0.04232099963908
C            2.62048360348267       -1.21820052669707        0.03379625110234
N            1.45361440202598       -1.93634845022198        0.00187979362694
C            0.40816243225598       -1.06427011680074       -0.01132456289779
C            0.94062703052543        0.21967887693527        0.01644705324199
C            0.11272827484545        1.39298727830568       -0.00366682575001
O            0.50768802004275        2.55912166875887        0.00131106080913
N           -1.24713980674418        1.04641524310750       -0.03723945059065
C           -2.21073642908470        2.13854780608357       -0.06159837164938
C           -1.81001282681473       -0.20368996351776       -0.05272000227111
O           -3.00562256190734       -0.38603434833745       -0.08608117500151
N           -0.93211669923471       -1.30856976781951       -0.03441037863301
C           -1.53814201390992       -2.63141462071463       -0.04360508208029
H            3.74440104111907        1.23019783833197        1.06862800742371
H            4.01045690529486        1.07676734500024       -0.68098426787091
H            2.69881502592547        2.11922759508867       -0.06090389772721
H            3.60408964876020       -1.63236256232203        0.05129518096762
H           -1.65516430467324        3.07297509188514       -0.03254013044275
H           -2.80986396567449        2.08124235815269       -0.96980820014693
H           -2.87292142697758        2.06216822395607        0.80002377247532
H           -1.11773045156486       -3.24085002348822        0.76215984132821
H           -1.30129378697321       -3.14602507329595       -0.94311568767420
H           -2.66162000855601       -2.60196946415974       -0.01536249277912
H            1.40283305622737       -2.94039517510452       -0.01110300100249
25
 energy: 5.923719685665 xtb: 6.6.1 (8d0f1dd)
C            3.26576799746626        1.22810688261263        0.10755884036635
N            2.34254830134884        0.14021027035580        0.04721631766622
C            2.66779299340636       -1.21405330524797        0.04246801673302
N            1.48127246448139       -1.93231811451290        0.00607565971921
C            0.43076339440889       -1.07833748543424       -0.01159824556860
C            0.94550787581344        0.22256503294219        0.01659587646213
C            0.13898991823857        1.37153085424878       -0.00290732330315
O            0.51356556067573        2.56141091218622        0.01013077228002
N           -1.24028864977527        1.02665163613937       -0.04919902128881
C           -2.19680814941744        2.11817619959173       -0.08168843045187
C           -1.79042681131368       -0.21031927989277       -0.06541351407078
O           -2.99382535174720       -0.39543005540122       -0.11748141977224
N           -0.93685237428760       -1.32251399808569       -0.02653544699042
C           -1.62892440032861       -2.61692588899963       -0.01566483533310
H            3.79270561393401        1.24768084338038        1.06968188837053
H            4.00889579228086        1.14444907037748       -0.69266775941105
H            2.69884858233380        2.15069936520217       -0.00853527719162
H            3.65208265200159       -1.61076209257268        0.06766219316672
H           -1.63412969255956        3.04880740463219       -0.04459365271163
H           -2.78608842787110        2.06299692476427       -0.99704809690419
H           -2.86785728482210        2.03985203658467        0.77341471063384
H           -1.03572630187798       -3.31272085812820        0.65245314255509
H           -1.57012761740866       -3.10137440307067       -0.95829255420914
H           -2.79848935549857       -2.64513762856399        0.11144266474469
H            1.45301793845418       -2.93421572093587       -0.00604060934396
25
 energy: 18.450147441618 xtb: 6.6.1 (8d0f1dd)
C            3.27590764395736        1.25708778010268        0.11861725846554
N            2.36114834531949        0.16252053141120        0.05216134206730
C            2.70539240109637       -1.20409715109791        0.05084085811009
N            1.51592624728844       -1.92768096510683        0.01394488583035
C            0.45206369881714       -1.09762473400931       -0.00372446234212
C            0.95326090595346        0.21832623480705        0.01968199354236
C            0.16053042316716        1.35760713400380       -0.00065442000651
O            0.51656392370903        2.55747749893915        0.01861228741713
N           -1.23096925907426        1.01304766910538       -0.06129261469540
C           -2.18411016159211        2.10114017393406       -0.10193429402854
C           -1.76872589937536       -0.22123995911701       -0.08178769172425
O           -2.97537314862295       -0.40683727559674       -0.15399763915650
N           -0.93414192133679       -1.34356656480566       -0.01275928034502
C           -1.69833824562509       -2.61494576038240        0.01445690705732
H            3.83701439832297        1.25928076994738        1.06465605948475
H            4.00034841612878        1.21243113195067       -0.70671734383508
H            2.69771168361080        2.17985971446816        0.04563256255305
H            3.69581654068978       -1.58186593397637        0.08212010717824
H           -1.61826487734467        3.02927370967431       -0.05606928635840
H           -2.76288977150487        2.04564515229234       -1.02409858351837
H           -2.86371546518206        2.01770447514258        0.74610138855506
H           -0.98824347709711       -3.37801371843658        0.53255886391766
H           -1.85000344856380       -3.04449016191434       -0.97625527623843
H           -2.90188044310493       -2.67117110836362        0.24677880017485
H            1.51718615829934       -2.93084004079995        0.00016147404214
25
 energy: 28.063166935711 xtb: 6.6.1 (8d0f1dd)
C            3.28129905158668        1.27616387527722        0.12234732966852
N            2.37376439337304        0.17112423884977        0.05449394587711
C            2.72814102449692       -1.19117708171559        0.05468977922783
N            1.54875339221886       -1.92265987576754        0.02363415229316
C            0.46659117920386       -1.11666392216439        0.01281001166640
C            0.96202258373046        0.20893016858634        0.02562798451543
C            0.17479662255376        1.35133071030713        0.00302635070804
O            0.51783330418636        2.54755283886251        0.02669820284332
N           -1.22079534900519        1.00523659956265       -0.06959010273830
C           -2.17379136293163        2.08888756697206       -0.11538770649600
C           -1.75021772261060       -0.23354267161605       -0.09933072467952
O           -2.95504882189952       -0.41761289692421       -0.19122673107466
N           -0.92997812214896       -1.36591254263703        0.00390110413544
C           -1.74449494008193       -2.62149050617362        0.03659253244695
H            3.87337666878644        1.26276217653966        1.05035149057915
H            3.98538527116389        1.26833802151478       -0.72439409608006
H            2.69660922423578        2.19964434600713        0.09023054482686
H            3.72724519910627       -1.55244194928968        0.08787297880682
H           -1.60802383130760        3.01595273472424       -0.06150817444316
H           -2.74440238102769        2.03299190108397       -1.04223344144316
H           -2.85948941545895        1.99918696752054        0.72696578638873
H           -1.00500966585354       -3.41341100361411        0.41868320551826
H           -2.04194030543136       -2.97361009501019       -0.94302470078247
H           -2.97069908029765       -2.70213234642925        0.33133613907819
H            1.58028775134846       -2.92841865229430        0.00446803530434
25
 energy: 31.885063798979 xtb: 6.6.1 (8d0f1dd)
C            3.28126715224588        1.27934133678117        0.12182066723410
N            2.37789331668379        0.16580068721394        0.05562938681959
C            2.72969561310842       -1.17936526990955        0.05826980749960
N            1.56825333981755       -1.91837008393204        0.03479467050063
C            0.47126210649581       -1.12614570885940        0.03106298658176
C            0.96915526908184        0.20072193907109        0.03177940260265
C            0.17858641345996        1.35400874044130        0.00393051961054
O            0.51780204310069        2.53905255853405        0.02822237061353
N           -1.21231706599219        1.00257625510370       -0.07168406312795
C           -2.16918019016127        2.08273777480551       -0.12572862437951
C           -1.74031043890902       -0.24450734440365       -0.10358037180734
O           -2.94005360598418       -0.42780153786623       -0.21747171838873
N           -0.92435871200972       -1.38010792458780        0.02356442857989
C           -1.74754431876156       -2.63577394321178        0.04755658667009
H            3.88622572555549        1.25734700775367        1.03655148331420
H            3.96959526584344        1.28843966922473       -0.73214637314590
H            2.69750356035283        2.20046027350674        0.10982588018960
H            3.73489939000299       -1.53352246350677        0.09452047026641
H           -1.60740659970562        3.01146341208880       -0.06963251789158
H           -2.73531414627874        2.02549970273073       -1.05468709027410
H           -2.85859763898282        1.99277788659738        0.71319284018600
H           -1.01200838823140       -3.43573609486557        0.30341108876932
H           -2.15532438119216       -2.86905192651831       -0.91391091654538
H           -2.98648935164660       -2.73568264669052        0.40814448954194
H            1.61898031004273       -2.92513369732911        0.01359849272789
25
 energy: 33.905398721673 xtb: 6.6.1 (8d0f1dd)
C            3.27940224579229        1.27400650169704        0.11870532531644
N            2.37680962710072        0.15740661570009        0.05686314981827
C            2.72084115149230       -1.17206824917497        0.06366555154141
N            1.57283837675088       -1.91678375824727        0.05056079198532
C            0.47087205771905       -1.12479947975796        0.05249620616387
C            0.97224006728019        0.19916713786247        0.03911527773622
C            0.17634439475196        1.35766995773762        0.00240578791512
O            0.51831642235946        2.53683914227329        0.02227673341140
N           -1.20707080420270        1.00052305053731       -0.07035058592114
C           -2.16854155963424        2.07972697064990       -0.13660821335365
C           -1.73704315832644       -0.25125984863587       -0.09406302398885
O           -2.93169840556735       -0.43656945216538       -0.22513380616587
N           -0.91688150975645       -1.38177830843143        0.05405204320296
C           -1.72511605517502       -2.64555593712562        0.05171362687418
H            3.88574285051741        1.24779035893935        1.02821869913679
H            3.95802010161672        1.28217628027249       -0.73734373856982
H            2.69564070091026        2.19171334678190        0.11088507216889
H            3.72684981434980       -1.52853380468761        0.10494798500589
H           -1.61192151810032        3.01203622301253       -0.08444586397494
H           -2.73227146847247        2.01869390034571       -1.06667875660251
H           -2.86078063626407        1.99633044646386        0.70053992504190
H           -0.97610677779272       -3.47303133468935        0.17835555005600
H           -2.23504149081284       -2.74019814294877       -0.90299104322788
H           -2.96605385131109       -2.77193417726948        0.47674093553015
H            1.62682409271077       -2.92253883696775        0.03310626704711
25
 energy: 35.433666154573 xtb: 6.6.1 (8d0f1dd)
C            3.27649200122623        1.26779461698241        0.11268870817742
N            2.37354948721923        0.14814002247086        0.05471933440053
C            2.70983651883409       -1.16709615850753        0.06150035787681
N            1.57150323670102       -1.91844866598212        0.06051096014121
C            0.46819978005457       -1.12073564131102        0.06815371577041
C            0.97325060922314        0.19902293925068        0.04527839101076
C            0.17060125703387        1.35848807226765        0.00272208925707
O            0.51957987156942        2.53422867667305        0.01995860658595
N           -1.20324389633037        0.99709381139824       -0.06735376247970
C           -2.16837633311166        2.07706239235555       -0.13784740615226
C           -1.73703617161823       -0.25668252198693       -0.08841748867849
O           -2.92645021240192       -0.44414616686640       -0.22498940690589
N           -0.90832154134855       -1.37921693458344        0.07522530162077
C           -1.70023576047596       -2.65189837113231        0.04113947780644
H            3.88328328567910        1.23919354992688        1.02084749631738
H            3.95006241788621        1.27277907207740       -0.74618684121594
H            2.69050257037009        2.18422285242808        0.10628065178592
H            3.71507670257771       -1.53026913615235        0.10616368916606
H           -1.61510930826283        3.01234859204398       -0.08852198589369
H           -2.73192336089785        2.01475249412593       -1.06790896088368
H           -2.86093487848808        1.99780466677083        0.69941423292687
H           -0.99933744732686       -3.45252075539172        0.09791591050798
H           -2.22994719122338       -2.66147850925261       -0.84426264027312
H           -2.92815224333055       -2.80820120855374        0.47430443303270
H            1.61934527437769       -2.92320908687932        0.04569903224574
25
 energy: 34.725973234540 xtb: 6.6.1 (8d0f1dd)
C            3.27765966385869        1.26900383133308        0.11247542853863
N            2.37483441474588        0.15150154720559        0.05468080973864
C            2.71386245442566       -1.17015187309817        0.06416553059991
N            1.56996040787929       -1.92087607335102        0.06712874430929
C            0.47090340734867       -1.11906947617968        0.07483524878953
C            0.97264873432587        0.20191291046861        0.04728582174065
C            0.17013870076579        1.35667333239906        0.00205343479509
O            0.52035578141351        2.53796550591188        0.01280590153332
N           -1.20489930452762        0.99554717311632       -0.06701980228636
C           -2.16951482997467        2.07594437470534       -0.14276184241772
C           -1.73642533363089       -0.25673474694494       -0.07908733455302
O           -2.92724698493676       -0.44715964985424       -0.21980371663995
N           -0.90504006234657       -1.37739195413580        0.09340264435131
C           -1.69766994930137       -2.64972792855174        0.04106423628178
H            3.88025710199338        1.24384138014960        1.02425263193527
H            3.95564181123810        1.26794492092836       -0.74385556216927
H            2.69052303862855        2.18471420158710        0.09854258734839
H            3.71700899603552       -1.53558914604785        0.11310926201899
H           -1.61563470456113        3.01131447007567       -0.09662406301687
H           -2.73242752330063        2.01036358190436       -1.07316446244633
H           -2.86244251861475        1.99989283324398        0.69457142531338
H           -0.96496726802911       -3.47564924461096        0.05016914823869
H           -2.27670169251756       -2.61407395317816       -0.85722552371848
H           -2.92065984833430       -2.82574655619486        0.49997842200985
H            1.61205017535255       -2.92542085870945        0.05605492585251
25
 energy: 33.788268466307 xtb: 6.6.1 (8d0f1dd)
C            3.27819852538153        1.27037667691772        0.11390805378540
N            2.37525881439127        0.15484649644759        0.05351752635343
C            2.71820641967211       -1.17436949686230        0.06236594132672
N            1.56715307377894       -1.92276855271156        0.06416632262057
C            0.47196130955385       -1.11847947151505        0.06898024874802
C            0.97161657956947        0.20310361205408        0.04517293588066
C            0.16955119002174        1.35481639096899        0.00142010306779
O            0.52095575372546        2.53939914612027        0.00978088952388
N           -1.20754971929482        0.99581489873566       -0.06715446158125
C           -2.17070487918888        2.07669457860903       -0.14142820752634
C           -1.73746058313210       -0.25472589539980       -0.07636820802100
O           -2.93045654723650       -0.44604505668369       -0.21209481758458
N           -0.90555031385549       -1.37649692363257        0.09320871485826
C           -1.70078269018683       -2.64795072512660        0.03598867713508
H            3.87460926334961        1.25058315349219        1.03086896127510
H            3.96440226547301        1.26436446063984       -0.73707916843294
H            2.69171286156236        2.18675266091315        0.09066710316673
H            3.71972136054550       -1.54062330231141        0.11426718392575
H           -1.61484073398947        3.01083325606159       -0.09588405338525
H           -2.73432186207809        2.01077964168259       -1.07142763524470
H           -2.86275091500240        2.00024049605384        0.69657724660420
H           -0.96189843302498       -3.46602229416312        0.05954579330951
H           -2.27350252130843       -2.62459206154752       -0.86144998706705
H           -2.91498633003967       -2.82995014651367        0.49538581654065
H            1.60367277924894       -2.92755294005716        0.05409891686864
25
 energy: 32.528103465865 xtb: 6.6.1 (8d0f1dd)
C            3.27816860240799        1.27036896811345        0.11429379341119
N            2.37484352850029        0.15670290144315        0.05232075250206
C            2.72128751702457       -1.17790590240447        0.05981925993273
N            1.56392176893290       -1.92460081922382        0.06440360310242
C            0.47276012318425       -1.11706214467852        0.06702630269504
C            0.97105308349666        0.20380943874852        0.04486815047706
C            0.16748404489032        1.35319062057878       -0.00002874315000
O            0.52181825873127        2.53972585318530        0.00390862635826
N           -1.20982684689538        0.99590648425154       -0.06707090721543
C           -2.17200834461936        2.07734789962733       -0.14204171800276
C           -1.73827725324327       -0.25376352423800       -0.06983114160319
O           -2.93261073827748       -0.44775844546156       -0.19919529220686
N           -0.90441871970149       -1.37549533693482        0.10324033032586
C           -1.69876353691788       -2.64866470990569        0.02920347395412
H            3.86716516886209        1.25712949698385        1.03793374484784
H            3.97368496234382        1.25716484637171       -0.73116124990891
H            2.69186935274437        2.18781732570556        0.07958979732842
H            3.72071334058679       -1.54557250754573        0.11739168453398
H           -1.61465870636278        3.01069807723280       -0.09828159924769
H           -2.73604964403321        2.01012312743685       -1.07175275600482
H           -2.86355134835285        2.00196977044771        0.69645614826419
H           -0.96029834969613       -3.46202123242813        0.04504492701316
H           -2.28016366919093       -2.60700855155201       -0.86006947930400
H           -2.89496370421567       -2.84348896723466        0.49538835203323
H            1.59303577773721       -2.92958406634705        0.05557783601129
25
 energy: 31.681975881024 xtb: 6.6.1 (8d0f1dd)
C            3.27747025965718        1.26962068804731        0.11413156883049
N            2.37372543290788        0.15669505925294        0.05210221662190
C            2.72165075788857       -1.17882185676620        0.05774540680326
N            1.56275117190531       -1.92491998573325        0.06509968635463
C            0.47232280982796       -1.11702774023954        0.06634482177276
C            0.97079505374575        0.20305237788851        0.04530810510478
C            0.16650112791950        1.35279655299178       -0.00054421055645
O            0.52196566731667        2.53878003938037        0.00240172532690
N           -1.21027576569866        0.99620767235746       -0.06733858014404
C           -2.17218702190047        2.07773972920752       -0.14299358642591
C           -1.73863229572842       -0.25339921252227       -0.06665427638644
O           -2.93341523875963       -0.44816548951914       -0.19460374725676
N           -0.90483162504913       -1.37547604089231        0.10933261528768
C           -1.70001231003686       -2.64917101730776        0.02627712996565
H            3.86383950762052        1.25901279390399        1.04040059632280
H            3.97659977321876        1.25345158700156       -0.72918907071283
H            2.69207628064945        2.18812591590337        0.07500633490331
H            3.72057524169238       -1.54599514889276        0.11942436507326
H           -1.61456151836697        3.01089660287867       -0.09944596023616
H           -2.73607445994925        2.01035509403010       -1.07280042402631
H           -2.86396933980510        2.00270922464809        0.69534210314475
H           -0.95940509582664       -3.46360105626677        0.03418922234223
H           -2.28290041666902       -2.59435577331805       -0.85623971168800
H           -2.88186311306326       -2.84942545210443        0.49819620539238
H            1.59006978443964       -2.93005596175710        0.05554136033337
25
 energy: 30.020485195885 xtb: 6.6.1 (8d0f1dd)
C            3.27657583086084        1.26887506007523        0.11394232521051
N            2.37254277276469        0.15647885920843        0.05218942299198
C            2.72203822785736       -1.17892082785640        0.05460068420749
N            1.56299260630191       -1.92485287984130        0.06629235847594
C            0.47237707202231       -1.11775479861852        0.06520111901156
C            0.97100333189699        0.20161765961274        0.04586310434386
C            0.16583074904889        1.35247121697266       -0.00095420266108
O            0.52145192231713        2.53745582529496        0.00249917414556
N           -1.20994707710419        0.99559853019262       -0.06806550597640
C           -2.17214868257744        2.07690502252186       -0.14411178248958
C           -1.73804915478315       -0.25442649563289       -0.06460157559061
O           -2.93311477104192       -0.44977094583061       -0.19221476067515
N           -0.90463052225119       -1.37676030984060        0.11482232684994
C           -1.70122890574565       -2.65097759933537        0.02374848587623
H            3.86109655132569        1.26001237055215        1.04210351306641
H            3.97813448464941        1.25046712695487       -0.72786544973195
H            2.69239323666252        2.18848193372935        0.07181883883647
H            3.72087530096572       -1.54449668116514        0.12265224312539
H           -1.61487218754945        3.01024333074266       -0.10010032318095
H           -2.73570645346222        2.01007997665327       -1.07415374739631
H           -2.86450143643391        2.00202316620954        0.69378850953513
H           -0.96507297741062       -3.46142378835465        0.02613553138075
H           -2.29444380722227       -2.57958358973022       -0.85523413675499
H           -2.86160944810276       -2.85266751593387        0.50415201102514
H            1.59022800494744       -2.93004604440867        0.05452573252192
25
 energy: 29.309290281197 xtb: 6.6.1 (8d0f1dd)
C            3.27609202334422        1.26839975843195        0.11371823509670
N            2.37176563304253        0.15590005298059        0.05266496999486
C            2.72085764005988       -1.17834760480245        0.05322982024531
N            1.56326657142905       -1.92441237095324        0.06712833247605
C            0.47141966647699       -1.11860502200168        0.06522813960774
C            0.97067277218221        0.20083084597859        0.04615892320286
C            0.16629170443909        1.35282560431061       -0.00047903396999
O            0.52104681979414        2.53696408467521        0.00420837065418
N           -1.20938797102208        0.99573070149453       -0.06842722828935
C           -2.17172105262173        2.07686340843457       -0.14448104631821
C           -1.73796800946533       -0.25437551738048       -0.06584750680447
O           -2.93276977301618       -0.44841489843427       -0.19513886542918
N           -0.90604943909027       -1.37719642002303        0.11390736342035
C           -1.70467968358775       -2.65057779464569        0.02390763739405
H            3.86269129433233        1.25793659052371        1.04031006586432
H            3.97552341245693        1.25176560259933       -0.72956893630671
H            2.69236619022134        2.18827594939721        0.07464560970428
H            3.72025040594013       -1.54264953942100        0.12425590748676
H           -1.61480439598613        3.01037251913743       -0.09980082141460
H           -2.73489540551214        2.01040330627552       -1.07476399132020
H           -2.86443661906548        2.00162521838818        0.69308324289333
H           -0.96586251906415       -3.46400869152197        0.02603825209025
H           -2.29467305588839       -2.58038011531491       -0.85480198003921
H           -2.85589631918134       -2.85029593352378        0.50856391249436
H            1.59311477771825       -2.92960113243285        0.05329452341374
25
 energy: 28.553691864335 xtb: 6.6.1 (8d0f1dd)
C            3.27605185194780        1.26836395566055        0.11367023850636
N            2.37170554964292        0.15543358935782        0.05311600782115
C            2.71969217905578       -1.17788107793868        0.05205015665794
N            1.56356056760574       -1.92415494022412        0.06779351306617
C            0.47072038495678       -1.11925579882374        0.06570622980621
C            0.97028352381988        0.20069191548993        0.04603696561980
C            0.16702843955527        1.35312247458684        0.00014812645586
O            0.52066827627654        2.53713821196214        0.00589140516730
N           -1.20908978810218        0.99570962219732       -0.06846260453462
C           -2.17149182441372        2.07677698332805       -0.14433486481554
C           -1.73800433541063       -0.25444896979501       -0.06822809879882
O           -2.93243131149484       -0.44713372301279       -0.19939270775164
N           -0.90713848720233       -1.37735658561517        0.11035285367560
C           -1.70704872748068       -2.64978186254379        0.02473945223715
H            3.86555079282662        1.25533900247396        1.03771019886226
H            3.97205213480749        1.25468149473613       -0.73180167956949
H            2.69204553224939        2.18778784943081        0.07916201861598
H            3.71951207022393       -1.54158768809276        0.12596993398641
H           -1.61474188201354        3.01037340344714       -0.09925141689272
H           -2.73446053113912        2.01047723643487       -1.07472770276232
H           -2.86430064379681        2.00124382397244        0.69310498837651
H           -0.96766764753474       -3.46487579246934        0.03036416187995
H           -2.29471065615794       -2.58666960090147       -0.85730989966575
H           -2.85172362804409       -2.84571148141932        0.51254617316824
H            1.59615282775859       -2.92925344006972        0.05218044703525
25
 energy: 28.141961871305 xtb: 6.6.1 (8d0f1dd)
C            3.27618216448301        1.26849749041968        0.11376240711196
N            2.37202077799124        0.15524119413764        0.05317662112411
C            2.71933393543857       -1.17803739046921        0.05123862461335
N            1.56333544645130       -1.92432293663098        0.06785568935781
C            0.47054266508566       -1.11929637499475        0.06619345061308
C            0.97004995219256        0.20095335922670        0.04575617932453
C            0.16720927127620        1.35305893004318        0.00030318262073
O            0.52062747595258        2.53739576182821        0.00604059567693
N           -1.20935905355597        0.99573385706042       -0.06820790165897
C           -2.17161680277160        2.07691805105285       -0.14409857848057
C           -1.73829902379412       -0.25440678083068       -0.06916718170461
O           -2.93258091420745       -0.44686175959095       -0.20060275039334
N           -0.90737659239832       -1.37711617945992        0.10844791518394
C           -1.70732938538573       -2.64917980803527        0.02514986587097
H            3.86664351723100        1.25452887770418        1.03680757445457
H            3.97086416328310        1.25606494300579       -0.73247190885779
H            2.69167510521983        2.18741201009775        0.08087912809856
H            3.71903575789699       -1.54209184710917        0.12713105999902
H           -1.61466690365599        3.01040195233468       -0.09913774408555
H           -2.73459005465299        2.01046908307705       -1.07447497235638
H           -2.86435140286518        2.00145094592721        0.69340058892066
H           -0.96815066755226       -3.46450205840930        0.03211234752584
H           -2.29441468837323       -2.59027649055337       -0.85893138322141
H           -2.84896129831947       -2.84365084365932        0.51387822816079
H            1.59639122296637       -2.92935538400033        0.05199285824905
25
 energy: 27.908572947386 xtb: 6.6.1 (8d0f1dd)
C            3.27630977145705        1.26864645399498        0.11393536199228
N            2.37246463130908        0.15503141599485        0.05310915835176
C            2.71922084535894       -1.17838326116866        0.05027640935217
N            1.56290458136454       -1.92465171759424        0.06748291902658
C            0.47051827412545       -1.11910234574340        0.06684047673325
C            0.96989961741167        0.20129814875812        0.04553313581859
C            0.16713197082349        1.35286320741297        0.00026013308921
O            0.52075240789174        2.53756640158858        0.00551744204225
N           -1.20983332924211        0.99582252661739       -0.06777257109525
C           -2.17184389612747        2.07718500587717       -0.14390295743981
C           -1.73875074143819       -0.25426753387481       -0.06943581693725
O           -2.93297180466741       -0.44699372012636       -0.20057742329350
N           -0.90730513097145       -1.37672497685649        0.10711543533809
C           -1.70679823142212       -2.64869640427535        0.02556325944900
H            3.86703402306385        1.25433258075779        1.03661759255801
H            3.97050133901212        1.25680359407506       -0.73254337844564
H            2.69118802893293        2.18704872239545        0.08157160139249
H            3.71853344036543       -1.54323183290633        0.12825782917385
H           -1.61457356064598        3.01048952735861       -0.09928676086349
H           -2.73488910526483        2.01046817037487       -1.07421955018906
H           -2.86445657367944        2.00198971745818        0.69371194943613
H           -0.96761968004551       -3.46348378776441        0.03154878292158
H           -2.29371430871741       -2.59230649149973       -0.85964699024769
H           -2.84691579843698       -2.84303640619371        0.51472288371085
H            1.59542789747874       -2.92963839248845        0.05235497427281
