25
 energy: 103.933588176253 xtb: 6.6.1 (8d0f1dd)
C            3.28866285241085        1.20157216217967        0.02733837626004
N            2.33566745134071        0.12127707514876        0.09334505118084
C            2.66507249413474       -1.16430252834333        0.11438400006101
N            1.55101622192653       -1.91621150450421        0.17924524266159
C            0.41980956451966       -1.05954874568416        0.21190389131954
C            0.97927459230892        0.25135508744220        0.15126516334471
C            0.22240051716670        1.51476993870169        0.13201901927824
O            0.77590604219824        2.62267409952002        0.03668520961553
N           -1.07327428818862        1.28183316606236        0.20956272128386
C           -2.07023681306288        2.27946033335157        0.25783554753341
C           -3.18365769695467       -1.46092800503300       -2.08986167417029
O           -3.61672961316693       -0.42118090035723       -2.03226221496083
N           -0.81653935681738       -1.34082077497855        0.28492629697110
C           -1.41252007856234       -2.62543626003162        0.28087243980608
H            3.89019692761319        1.22889082178585        0.93685083715580
H            3.94793460783955        1.06816564037332       -0.83056618948154
H            2.73438379113290        2.13891832421269       -0.06854505800056
H            3.66608612580143       -1.54494415446342        0.08411707847934
H           -1.66507846338963        3.29717804472872        0.29645090919598
H           -2.71700678304190        2.17791524673360       -0.62021523106262
H           -2.69290727102771        2.10200531164020        1.14122516694331
H           -0.72477632228819       -3.47945253578989        0.35318073058786
H           -2.00121782613582       -2.70480045395740       -0.64259903432200
H           -2.12757306741073       -2.65810294596647        1.10735592979854
H            1.53732069662199       -2.92125765403077        0.21251970271896
