25
 energy: 106.221406391423 xtb: 6.6.1 (8d0f1dd)
C            3.24838796312208        1.19342594981747        0.03756866095216
N            2.28087913099402        0.11398600373635        0.09399563083184
C            2.59674967142591       -1.18782221661689        0.14765665232252
N            1.45364388743900       -1.91355954239537        0.14233378561919
C            0.32170606569859       -1.05375837885774        0.10966200851608
C            0.92691927201703        0.25050430214087        0.07025712171775
C            0.16839433665312        1.52239507790627        0.08336111789869
O            0.69983143883990        2.63373206432187        0.12005185623638
N           -1.15348394362581        1.19745586930358        0.07417692235929
C           -2.13410639754901        2.20914378395100        0.20866978480225
C           -2.16647103697561       -0.83389955163008       -1.75606477338893
O           -3.25449538350220       -0.54036456686723       -1.78118584133664
N           -0.93518559686619       -1.33765924564695        0.08115114661871
C           -1.48192560195101       -2.65558923929393        0.20789259982213
H            3.88163557407301        1.20253497660457        0.93177579511680
H            3.89806728753669        1.06337394772485       -0.83379323888487
H            2.71275259133243        2.14450968871834       -0.04767682309796
H            3.60062127051793       -1.58239797191681        0.10541987740846
H           -1.61908099566485        3.15845416483433        0.27102912604809
H           -2.86846520387239        2.24564328224114       -0.61348681768406
H           -2.68322630953828        2.00400720727522        1.13477614026373
H           -0.72196764653738       -3.43403656317566        0.27080734147217
H           -2.09478031135612       -2.89396594881103       -0.66618288710125
H           -2.14947911469093       -2.64489212350372        1.07921492281347
H            1.44072292903868       -2.91810432579464        0.22713068945971
