25
 energy: 18.938533496298 xtb: 6.6.1 (8d0f1dd)
C            3.25995194217010        1.19564499779247        0.06119305470988
N            2.28843034882699        0.13138501519513        0.10063464026382
C            2.59172202648295       -1.22366589960344        0.15558909001823
N            1.40397128688323       -1.92393591882695        0.09692700578481
C            0.35580066670241       -1.05867073297585        0.02324982497124
C            0.89070942582007        0.22138680887811        0.04247531130952
C            0.03789253894927        1.35776496276005       -0.00161688113295
O            0.46837847190405        2.51165148785520        0.09751004074164
N           -1.33534490437510        0.98164313315798       -0.20851845782544
C           -2.20289941062512        2.12892661941299        0.06812454458147
C           -1.85086855575936       -0.27342991735802       -0.77337540618716
O           -2.96057427755187       -0.45591633562675       -1.22442771367068
N           -0.97417634423531       -1.32974890351660       -0.24420630901577
C           -1.51238185318728       -2.63245569088282        0.06458917242147
H            3.82988970872114        1.23745860365986        0.99804499427101
H            3.96475017973960        1.07382378558186       -0.77278049732030
H            2.73141969945814        2.14051028014731       -0.04743763795377
H            3.58599393324558       -1.61195945221494        0.10164878912865
H           -1.58932111546562        3.03564204960428        0.14849625679679
H           -2.88375748933344        2.24364219510219       -0.76362552330553
H           -2.77092583067806        2.02470514627848        0.99626949304694
H           -0.79230719232264       -3.28878974658668        0.56149130631668
H           -1.75437001337138       -3.06283034669662       -0.89669118084990
H           -2.44844411290223       -2.57743796554663        0.62792814363683
H            1.38293071680998       -2.93093543508166        0.13779160363210
