25
 energy: 105.563964528363 xtb: 6.6.1 (8d0f1dd)
C            3.28215285951284        1.18092383379863        0.01597521659138
N            2.31712812026376        0.11276752786710        0.09322870371404
C            2.62085403759197       -1.16913505657189        0.10192216736307
N            1.50208586739164       -1.90881526615446        0.16696805457747
C            0.36895234534229       -1.04840907727621        0.18453925836399
C            0.95791737725454        0.25641860599962        0.13967677740632
C            0.24073039467587        1.52748331109167        0.13036695822657
O            0.76552369645787        2.64838891307762        0.05609956327139
N           -1.05989801319437        1.28537081773512        0.20814255730755
C           -2.06867533964206        2.27800779800073        0.25563177272811
C           -2.88655710763234       -1.27253923642120       -2.07127988131450
O           -3.78704395628828       -0.59483067600254       -2.03355970756170
N           -0.87346528529911       -1.33873010136933        0.18358911941350
C           -1.45165600854804       -2.63617378127979        0.27475977610673
H            3.88425374741961        1.20795160630273        0.92268733201048
H            3.93544140814157        1.04063463600082       -0.84530754138429
H            2.73481990906511        2.11958215111286       -0.07851898100313
H            3.61921803493853       -1.55291248651892        0.08791914335226
H           -1.63611129620785        3.27740078045190        0.28552464671751
H           -2.75134798031319        2.19133479453398       -0.60417656163879
H           -2.69244575980359        2.11533802048669        1.14063303407108
H           -0.72927154607247       -3.49754508769448        0.24827946260498
H           -2.16118817845822       -2.73474145592120       -0.56519363274159
H           -2.05241445985052       -2.66093831937999        1.20250384512908
H            1.49082130722753       -2.91207967809180        0.20504679296212
