25
 energy: 107.017326571201 xtb: 6.6.1 (8d0f1dd)
C            3.25347643888395        1.19021346456398        0.03954722135657
N            2.28625245356287        0.11099468758551        0.09695340425299
C            2.59515213514107       -1.18590894858919        0.13011572914174
N            1.45960327274661       -1.91417992259507        0.13344350601837
C            0.32146221571291       -1.05166807637458        0.11838078227322
C            0.92997455807401        0.25741433557741        0.08644142982429
C            0.19183475115911        1.53688438301566        0.10301432090836
O            0.72051285374808        2.65232673928735        0.11084791677353
N           -1.13524794493014        1.21716345234353        0.12266095777644
C           -2.12670081767480        2.22261196866235        0.21489732239605
C           -2.27167174565909       -0.90784976687480       -1.86486054957132
O           -3.36411159965737       -0.62892276907384       -1.84774213726601
N           -0.92893582815819       -1.33620263441349        0.11455695044660
C           -1.48211402197635       -2.65122564003104        0.20778507758300
H            3.87769719500931        1.20100311003270        0.93816533876675
H            3.90776515511229        1.06345299123029       -0.82412842292771
H            2.71894359632552        2.14137904345795       -0.05284906221931
H            3.60566008007076       -1.57060596861051        0.08715593229788
H           -1.63193008114816        3.18274368878270        0.27456921675305
H           -2.84245071094580        2.23094479439013       -0.62462027016604
H           -2.68868912116764        2.00239717972051        1.12319516058891
H           -0.74803097285415       -3.45725512011392        0.21144605704256
H           -2.15348548127326       -2.85123424843363       -0.65071705736125
H           -2.10975588582574       -2.63964986207807        1.10294026169751
H            1.45721049357883       -2.92040104029164        0.23428795697635
