25
 energy: 106.989895235573 xtb: 6.6.1 (8d0f1dd)
C            3.27129499446591        1.18112817634426        0.02853570514584
N            2.31154630231635        0.11071418661196        0.09900428117302
C            2.60676542029841       -1.16869587967287        0.10420771046633
N            1.48842154782853       -1.90454225728751        0.15932118262227
C            0.34649490602225       -1.03988491869723        0.16441694185159
C            0.94940121177908        0.26560865501054        0.12331036007266
C            0.24628020887080        1.53135821310125        0.14102933091793
O            0.77193708211617        2.65574611375751        0.07118132256106
N           -1.08873530406627        1.26011125510466        0.19540089858866
C           -2.09004149315661        2.25774452768396        0.24668717324640
C           -2.62208891035864       -1.20793460194380       -2.01123933992608
O           -3.63593708540284       -0.71757832690382       -1.93601305673598
N           -0.89362991972787       -1.33606995341065        0.17122688750449
C           -1.44592107540964       -2.64683824481864        0.27379302337969
H            3.87021343181919        1.21220116795941        0.94106527604826
H            3.92192581514167        1.04871881065073       -0.83273354688641
H            2.71755220665936        2.11749604228599       -0.06618328889972
H            3.61170699191577       -1.53115565130269        0.10489161981284
H           -1.65048262907161        3.24756182924106        0.28259405040542
H           -2.77433747132316        2.20816882967266       -0.61102637311769
H           -2.69790375753181        2.07173614976504        1.14075722822571
H           -0.71735533841762       -3.50994980210949        0.20684870542160
H           -2.22013209782909       -2.79244331931273       -0.49942737678994
H           -1.95521797858580       -2.66411535604811        1.23501941535213
H            1.50660337024079       -2.90766157669370        0.21194833774838
