25
 energy: 104.780034108934 xtb: 6.6.1 (8d0f1dd)
C            3.28310691782450        1.19036005089913        0.01909150392257
N            2.32262293562444        0.11776072158277        0.09052402117667
C            2.64000380165912       -1.16734207169928        0.10694679430147
N            1.52472731965217       -1.91332661008500        0.17624186631670
C            0.39342723036161       -1.05481687360551        0.19679739423982
C            0.96483929994359        0.25217125439572        0.14494864944590
C            0.22617356332910        1.51569453260020        0.12737671014827
O            0.75571123868162        2.63497108193516        0.04721783454276
N           -1.06329368267719        1.28204882364826        0.21183345650379
C           -2.05890237159594        2.28330583433932        0.26043644495814
C           -3.03034045141261       -1.34943707463289       -2.09639524832066
O           -3.82243569307527       -0.54374253056091       -2.05329137130010
N           -0.84526510252857       -1.34104726543336        0.21698355320566
C           -1.43398112747770       -2.63100243111646        0.29109261052062
H            3.89010844580966        1.20676845842823        0.92343123230573
H            3.93842500891595        1.05150234330126       -0.84220149922534
H            2.73454815121894        2.12921415805984       -0.07383223925192
H            3.64010140849196       -1.55111268817095        0.08641200505621
H           -1.62894874838594        3.28768627875435        0.28873325783242
H           -2.73414317916236        2.20001136568623       -0.60398380807708
H           -2.69358735479586        2.13082958739323        1.14552308905473
H           -0.73313539716046       -3.48885018445103        0.29060269199519
H           -2.11081158305110       -2.72739541067299       -0.57047923287080
H           -2.03382893972019       -2.65991544866942        1.21757101572026
H            1.51211432967101       -2.91563750673389        0.19909858608610
