25
 energy: -5.977091163729 xtb: 6.6.1 (8d0f1dd)
C            3.24448384543161        1.17852210686312        0.08127543534897
N            2.30668413949362        0.10546165238299        0.03926583838721
C            2.60532332387498       -1.24133627347306        0.04422293699964
N            1.41862541111076       -1.93643557435752        0.01833396291096
C            0.39282750940420       -1.06034533003906        0.00938727375644
C            0.91817899109966        0.22565784245987        0.02768651090931
C            0.11130621733588        1.37580750681771        0.01422821173069
O            0.48465605888559        2.55587028197945        0.03488068992593
N           -1.28196411672731        1.03516832866948       -0.05993247186116
C           -2.21763863971832        2.14800347190980       -0.03303943003931
C           -1.83677315742829       -0.20544950354859       -0.15530056044740
O           -3.03204630496154       -0.39439252392505       -0.24560485747710
N           -0.95390611884508       -1.29993943135403       -0.04129834280104
C           -1.47634474130664       -2.64365633434332       -0.03641386701098
H            3.73461123068951        1.22308214840424        1.05834404410585
H            4.00524255143607        1.04270460639745       -0.69056038608365
H            2.70221279635752        2.10841133793198       -0.08763499020898
H            3.58357537946204       -1.65760435773056        0.04817657355741
H           -1.65150064622237        3.07802652546559        0.00075645086014
H           -2.83337166149240        2.11949407026310       -0.92940211029165
H           -2.86402545545939        2.07071242226946        0.84138778648180
H           -1.09979948464481       -3.21433870619822        0.81665840878380
H           -1.22607904053241       -3.15956461515013       -0.96345064394151
H           -2.55871291948252       -2.55878241982369        0.02890689396040
H            1.36443285879135       -2.94072340462882        0.00786926801185
