25
 energy: 69.153686013126 xtb: 6.6.1 (8d0f1dd)
C            3.24845890491309        1.19186605678208        0.05354707935109
N            2.27351868031363        0.12088948672561        0.10188507321467
C            2.58460131769038       -1.18610116741834        0.18029511769118
N            1.41985830801821       -1.92239017885817        0.13516880861919
C            0.33526358349744       -1.04553055462802        0.03411208330535
C            0.91122576336856        0.21513936143058        0.03258670145141
C            0.07973092999763        1.44504760900637        0.01590881264255
O            0.61172785768019        2.54401269427296        0.15580923967267
N           -1.22157060862350        1.10389882778581       -0.12031401987343
C           -2.16367701138101        2.16692622088077        0.13530843692352
C           -1.81720160642981       -0.49181438794939       -1.15553681697259
O           -2.89120135425133       -0.52481700515702       -1.66286057367043
N           -1.00250255978000       -1.32680607294006       -0.16516756452055
C           -1.50868721763979       -2.64673756878974        0.12812603506796
H            3.85907064389258        1.22882249426979        0.96520186560308
H            3.92414968712346        1.06789656995942       -0.79764120383271
H            2.71085792320211        2.13664659817150       -0.02821885129757
H            3.57648756137657       -1.58655149522524        0.15204420531173
H           -1.59199976533701        3.08772321545272        0.23813415672358
H           -2.88382615866452        2.28344269128730       -0.67781584095772
H           -2.71810744869103        2.01480140338658        1.06722577128349
H           -0.70679298700674       -3.35474964010600        0.36156481166884
H           -1.98936328560954       -2.97322284568745       -0.78709688914051
H           -2.27918994018831       -2.62325011980538        0.89228118273488
H            1.43677808767239       -2.92595797523349        0.18291502541201
