25
 energy: 106.555353134178 xtb: 6.6.1 (8d0f1dd)
C            3.27804263200346        1.18112032862104        0.02034847971551
N            2.31721734516939        0.11324676366401        0.09704951387691
C            2.61265841864063       -1.16287342895161        0.10266245849598
N            1.49354193327048       -1.90131708524280        0.15764303857572
C            0.35982638829320       -1.03826296945473        0.17222806444485
C            0.95626783051555        0.26779449387637        0.12825945305790
C            0.24748055794710        1.54179563163971        0.13283741319516
O            0.77901303310658        2.65951336765998        0.06584853092950
N           -1.07007545113738        1.27949173621371        0.20500462409933
C           -2.07971446283413        2.27296017481128        0.26033091339467
C           -2.72299439014286       -1.27834381187736       -2.04776516082667
O           -3.67100077843624       -0.67148629352040       -1.99971003383306
N           -0.88090952971984       -1.32964325088729        0.16394604642504
C           -1.44212003615020       -2.63393824407493        0.28146202590521
H            3.87467661990720        1.20256288840997        0.93104939708827
H            3.92776369573417        1.04196006111826       -0.84210288682424
H            2.72630330638053        2.11794575797188       -0.06984471598955
H            3.61024397809324       -1.54780132289500        0.10533946430928
H           -1.64375361146442        3.26586465843597        0.28936456714158
H           -2.75111162046107        2.20477936070314       -0.60250061940243
H           -2.70028258720334        2.09543129223499        1.14397948323212
H           -0.68477767562324       -3.49225070087632        0.25136510708632
H           -2.17563259654886       -2.75646204590419       -0.52537440886361
H           -2.03968896325660       -2.66253469832089        1.20270185515986
H            1.51127439778840       -2.90424660062945        0.20484693439632
