25
 energy: 107.817588786825 xtb: 6.6.1 (8d0f1dd)
C            3.25393557811320        1.18616852491210        0.04007807541799
N            2.29079359776675        0.10691011925625        0.09671513063912
C            2.59395275640657       -1.18527530554859        0.10775101762410
N            1.46419602475900       -1.91185920494762        0.12730492098902
C            0.32207967018180       -1.04801219195973        0.13454642612194
C            0.92951205308376        0.26074936823816        0.10221538325639
C            0.21033823696760        1.53529620679966        0.12528493649318
O            0.74316828985610        2.65603546650644        0.10291477085178
N           -1.13307470349553        1.22595914687536        0.16344893302311
C           -2.11587468592063        2.23906400044772        0.22238467186722
C           -2.39493887425629       -0.98320330791617       -1.92488941658601
O           -3.48810040160887       -0.70647355863719       -1.90582687193533
N           -0.92291898947930       -1.33727361594922        0.17076162182686
C           -1.47958023799865       -2.65001841565594        0.24199546740428
H            3.86485108122786        1.20424753557461        0.94634067937042
H            3.91150142160116        1.07070767525213       -0.81822044190257
H            2.71444237733755        2.13330626402441       -0.05326316875335
H            3.60462791876324       -1.55978079984426        0.09004462432187
H           -1.63625429779592        3.20634377519115        0.27465641832907
H           -2.81436790382811        2.21817223831314       -0.63363223500659
H           -2.69136976937993        2.03151210697815        1.12617623703150
H           -0.76646371051228       -3.47686037688649        0.20704861993471
H           -2.19851841598666       -2.81554687127469       -0.58741252536349
H           -2.04843251914452       -2.65618324881775        1.17102189625170
H            1.47326282067624       -2.91822569693752        0.22579985003035
