25
 energy: 8.357190803966 xtb: 6.6.1 (8d0f1dd)
C            3.25879128927839        1.19950788802065        0.06560838362017
N            2.30526999919881        0.12694704964647        0.07469731877741
C            2.61134822227929       -1.24289144550493        0.12826786529242
N            1.40546428838743       -1.93127931460453        0.08699894669951
C            0.36720137853167       -1.05956219426951        0.03112487539596
C            0.90627952288898        0.22062002830135        0.05530431232867
C            0.05641467707467        1.34633181185664       -0.01970161503824
O            0.44220122283395        2.52042875937982        0.08056199109582
N           -1.34972617292502        0.97889675423134       -0.19463176369786
C           -2.21390821339918        2.13491114561232        0.03002061763889
C           -1.88153595379092       -0.24437389625518       -0.59594652535379
O           -3.03386006894925       -0.44572707794985       -0.91665016036660
N           -0.97753575390867       -1.30584351769789       -0.16873583201681
C           -1.49615003405686       -2.64037698762224        0.03596641903513
H            3.79895270721887        1.23893241266591        1.01871326091657
H            3.98246259906389        1.06601255476860       -0.74714296750216
H            2.72211599733420        2.13848606545362       -0.06576186920022
H            3.60388441723221       -1.64661560816902        0.08865678634444
H           -1.60634560992362        3.04365661216978        0.09937905610198
H           -2.87263358701052        2.21383468837424       -0.82351195394875
H           -2.80338818823992        2.03740847290164        0.94428404158011
H           -0.85719245563013       -3.26728885167239        0.68279899192988
H           -1.58025580234369       -3.10233714833448       -0.94564699275749
H           -2.51224406748429       -2.57022111146809        0.43627751975640
H            1.35455422317271       -2.93574226552513        0.10444285950162
