25
 energy: 104.288639154371 xtb: 6.6.1 (8d0f1dd)
C            3.28856537916954        1.19828635540715        0.02554895162887
N            2.33551394244259        0.11833024074419        0.09318147044569
C            2.66121126206729       -1.16820683322190        0.11511399935228
N            1.54671793798469       -1.91745130181420        0.18276030847307
C            0.41602835252686       -1.05766876515638        0.21178576295914
C            0.97888397131316        0.25166731083009        0.15139058845010
C            0.22320973500907        1.51404169240512        0.12846617330821
O            0.77745426536974        2.62425691713302        0.03788840118407
N           -1.07341478778902        1.27627226561429        0.21504793222596
C           -2.06420236103891        2.28373116990526        0.25996842971420
C           -3.05814127889816       -1.34156510361540       -2.11625602010590
O           -3.82380344501619       -0.52175542054750       -2.04023476876479
N           -0.81918005245768       -1.34261500064098        0.25700844802828
C           -1.41529834793866       -2.62747963048345        0.28486691874192
H            3.89237371106889        1.22106825303594        0.93260393891720
H            3.94529540251875        1.06455835687258       -0.83421701139460
H            2.73507049524241        2.13616169958079       -0.06932401723053
H            3.66288079179852       -1.54878643993001        0.08385727717300
H           -1.64684924672528        3.29834145841980        0.29284876118158
H           -2.71694431726773        2.18570974713427       -0.61360025690050
H           -2.68874904301040        2.11074130326712        1.14170554478923
H           -0.73372282895746       -3.47665356425873        0.33813888302004
H           -2.03271890082056       -2.71527522423895       -0.61264620820864
H           -2.09004036648991       -2.66589328406458        1.14006820591875
H            1.52736366862029       -2.92192735456999        0.21222919581863
