25
 energy: -0.968233495385 xtb: 6.6.1 (8d0f1dd)
C            3.25257385076868        1.19063884032139        0.07314748518060
N            2.30974632257861        0.11675788325391        0.04978944849896
C            2.61476992496719       -1.24437766741415        0.07549484767895
N            1.41291826138390       -1.93108826794790        0.05339718485101
C            0.38138033249491       -1.05497712766008        0.03683755480126
C            0.91005723703857        0.23094784427038        0.04731421176091
C            0.09086846454398        1.36855468328191       -0.01101162110382
O            0.45825161965850        2.54310355171255        0.05188392885620
N           -1.32163342296625        1.00459095875275       -0.11608465637861
C           -2.21772065669527        2.14258446449224        0.00001459823965
C           -1.87002667887237       -0.22348007034402       -0.37580529309298
O           -3.04864688043780       -0.41976997131473       -0.58626980012983
N           -0.97667568554607       -1.29022531719554       -0.08992747636423
C           -1.48545812292552       -2.63976785214041        0.00412289230333
H            3.76638502344001        1.23287141142100        1.03961728491648
H            3.99575209028941        1.05538174117431       -0.71828655301394
H            2.71099208522527        2.12451973747805       -0.07908771094313
H            3.59744564994170       -1.66988319148911        0.06789803075278
H           -1.62953866574790        3.06112398987044        0.04970122926258
H           -2.85375467245691        2.16663956510442       -0.87794366613463
H           -2.83573322073428        2.05482259890319        0.89439121143156
H           -0.96843313019387       -3.23975104656831        0.76728903667903
H           -1.39993407661759       -3.12845964946407       -0.96538906913655
H           -2.54677560371638       -2.56365889593340        0.23621615779298
H            1.35180072922046       -2.93581693615588        0.05328008879228
