  25
        -42.15334531
 C          3.2268102351        0.9581180572        0.0055988024
 N          2.1294968423        0.0366430782       -0.0004806040
 C          2.1981654348       -1.3261157254       -0.0048864202
 N          1.0244194992       -1.8944042553        0.0008396693
 C          0.1035480321       -0.8968953897        0.0099416085
 C          0.8135104454        0.3432918673        0.0097860699
 C          0.0925697710        1.5967423593       -0.0006260509
 O          0.6164399568        2.6936766534       -0.0182276556
 N         -1.2785589515        1.4145845721        0.0079931252
 C         -2.1254623501        2.5818066513       -0.0061820345
 C         -1.9574486756        0.1532956180        0.0151106900
 O         -3.1599769665        0.1518081318        0.0180368987
 N         -1.1958939620       -0.9684600293        0.0158107767
 C         -0.2332291373       -4.8089152979       -0.0413817135
 H          3.7720919777        0.8908891277        0.9501472121
 H          3.9172513337        0.7270644411       -0.8072616064
 H          2.8446943722        1.9725639957       -0.1128867035
 H          3.1247579058       -1.8689971984       -0.0130567914
 H         -1.4936319636        3.4698606912        0.0191511314
 H         -2.7476772753        2.5849574097       -0.9054848529
 H         -2.8002546415        2.5661039260        0.8537576639
 H          0.0624961706       -5.3312906955        0.8645415725
 H          0.1295409064       -5.3529973644       -0.9097518789
 H         -1.3177449269       -4.7391199994       -0.0820981685
 H          0.1970320304       -3.8030977812       -0.0391984856
