72
 energy: -99.267626969276 gnorm: 0.004208692450 xtb: 6.6.1 (8d0f1dd)
N           -1.93910925946300        2.96409479847172        1.98382442944415
C           -1.90071395668301        2.06936369752798        1.11476735820344
C           -3.06482430348821        1.65451909037372        0.26048322448405
C           -3.37192759598589        0.19341439479026        0.52590416288511
C           -4.16699930609542       -0.54011036071851       -0.37846131929214
C           -4.44077926869091       -1.81832714892482       -0.07483017600557
O           -5.04486416975392        0.90293053880057       -2.81957340402984
C           -6.26360331430428        0.78455159561511       -3.34613833591292
C           -4.05838880594442       -2.53005882422488        1.04141132215040
O           -4.42935684415182       -3.81139734689084        1.18894176154680
C           -4.11162970857756       -4.48962117548603        2.38212440541285
C           -3.27415643496617       -1.78909377607213        1.94160698768843
C           -2.95129689214743       -0.46711877205623        1.67430802587890
C           -2.62130618385541        1.87052693613998       -1.20789630825902
C           -1.62195719306937        0.83313289791070       -1.74883537241377
C           -0.27776400806620        0.91576837836809       -1.14971240111405
N            0.44142695348214       -0.11167425935150       -0.73620492325169
C            1.81324073059557        0.06424729632089       -0.31604113854698
C            2.80400866847213       -0.35734931835140       -1.41761545883519
C            4.21742282258414       -0.13196905694569       -0.95688674007662
C            4.83747300425389        1.09236072056752       -1.15251513515827
C            6.13582437261056        1.30876264876637       -0.71863960599520
C            6.84233875332491        0.30287235080508       -0.07356790953052
O            8.10341091819749        0.39562853540022        0.38114985026145
C            8.82284477189592        1.59193962573344        0.18600027087762
C            6.21126717882155       -0.95551694100682        0.13941179092872
O            6.96748510321180       -1.87375954543245        0.76945084780105
C            6.45002310376816       -3.16409497976141        0.99145111752262
C            4.91086991677150       -1.14682782576218       -0.30206849114775
C           -0.07452171020320       -1.46114601719655       -0.75442578899964
C           -4.36479420674709        2.47278166910974        0.52587170039920
C           -4.87748105172276        2.27443212567046        1.94972561802465
C           -4.19982381714286        3.96287088114064        0.24223611420297
H           -4.54442221893936       -0.07053459525310       -1.28985043154907
H           -7.05658854869087        0.95387096901449       -2.59298627246652
H           -6.42134646131615       -0.22303599225694       -3.77176303458616
H           -6.41911058900613        1.51286643603201       -4.16018049515695
H           -4.53318604535462       -3.98246815996648        3.25455183800808
H           -4.56207290693608       -5.47554149389997        2.28670271370153
H           -3.02949675669115       -4.59790993607282        2.50698268521373
H           -2.93053739851699       -2.24426889952930        2.85723199564481
H           -2.36842795398348        0.06931953638982        2.40913732898650
H           -3.50627251157104        1.81784455459298       -1.84365902264584
H           -2.19178107730655        2.86804281646446       -1.30052699647395
H           -2.04870096995044       -0.16360774675306       -1.66699424864792
H           -1.51547601515961        1.05488475128071       -2.81815246140606
H           -0.98294887831179        1.50999070893934        0.84906032327572
H            0.20883141895003        1.88136810398464       -1.14197117348336
H            1.99124913756157       -0.53304732834386        0.58239291038352
H            1.98516596107335        1.11376733982684       -0.06825555147453
H            2.60629173879510        0.23539236041991       -2.31226183974191
H            2.65410763267507       -1.40979362421837       -1.66092936140912
H            4.31457154660070        1.88764963230679       -1.66149113709490
H            6.59469444514771        2.26778720586449       -0.89439256604225
H            8.34615249139547        2.43403089431828        0.69661213390827
H            8.93291548679067        1.82319099189239       -0.87758632679364
H            9.80486195470512        1.41565129260822        0.62067964681433
H            7.24869380231211       -3.71860851727734        1.48023930527064
H            5.57464483612081       -3.13774326962484        1.64828982736415
H            6.18907297418971       -3.65901675959992        0.05100823070107
H            4.42861862053069       -2.10043963747839       -0.15376967066338
H           -0.23721989219230       -1.80573691161930       -1.77742729643124
H           -1.02195294723889       -1.51514737999399       -0.21408048168516
H            0.63806284260635       -2.12535151926354       -0.27241259659114
H           -5.11305205887961        2.07430488946740       -0.16799768535020
H           -4.15814328717863        2.66525258415823        2.66376265304941
H           -5.05691604436790        1.22359117563070        2.16438834454942
H           -5.81381034459181        2.81119123186010        2.07762767138667
H           -3.40208295151894        4.37840899297650        0.85135771411029
H           -3.99244825953135        4.15277295823812       -0.80665801719097
H           -5.12265029390675        4.47808056824649        0.49626346714533
H           -1.08511314857025        3.19099846627541        2.48306624008532
