  25
        -42.14756571
 C          3.1373891777        0.6401312169       -0.1228350284
 N          2.0315809125       -0.2731250945       -0.0302367779
 C          2.1345921841       -1.6020258795        0.0081911230
 N          0.9072883981       -2.1373958858        0.1178187818
 C         -0.0101874552       -1.1140473649        0.1428954768
 C          0.7046975400        0.0704647151        0.0626375091
 C          0.2020989839        1.4722124612        0.1232265136
 O          0.9361207744        2.4154302506       -0.1800748511
 N         -1.0414453444        1.5401047540        0.5607645575
 C         -1.7534303863        2.7450029469        0.6760854879
 C         -2.1656538423       -0.6601209389       -0.7755579521
 O         -1.6866884537       -0.0255032415       -1.6746954825
 N         -1.3815650684       -1.3367940079        0.1810648572
 C         -1.9043875414       -2.2151185089        1.0535587232
 H          3.4469051406        0.9615714490        0.8743128438
 H          3.9752251557        0.1558808521       -0.6198825553
 H          2.8272961710        1.5281169758       -0.6758614993
 H          3.0500478742       -2.1573108301       -0.0384993603
 H         -1.1008900773        3.6248107070        0.6024173345
 H         -2.5036276767        2.8001622442       -0.1220120502
 H         -2.2817211162        2.7525690411        1.6336663018
 H         -1.2832455850       -2.6596992928        1.8058934307
 H         -2.9566046328       -2.4178303670        1.0218975581
 H         -3.2364182836       -0.8204688828       -0.6170841528
 H          0.6960312027       -3.1254345421        0.1303652472
