72
 energy: -99.366989912909 gnorm: 0.004670516245 xtb: 6.6.1 (8d0f1dd)
N           -1.81218619878909        2.73052830296009        2.31355957901987
C           -1.80761980354299        2.02246519908739        1.28481937598601
C           -2.97040668074050        1.87222843696008        0.34333299688276
C           -3.43428525007040        0.42413963448110        0.34305060125866
C           -4.32638052572308       -0.02184366599485       -0.63437104024735
C           -4.79765811841483       -1.32405530161662       -0.64365888565178
O           -5.65952512118472       -1.83519283494854       -1.54770706078716
C           -6.21081512676978       -0.99034533270047       -2.52984639744216
C           -4.36665819840480       -2.23189547482665        0.36102509926868
O           -4.87844507281512       -3.47653685424918        0.27685466275158
C           -4.58266945982800       -4.40805532682392        1.29119217526718
C           -3.48251878340254       -1.78238463152398        1.32858326988666
C           -3.02438229021181       -0.47109202453539        1.31863998431495
C           -2.43064524501770        2.27023938068862       -1.05587371315190
C           -1.52296118086294        1.21746881318886       -1.71519901257237
C           -0.18896508680007        1.10410961451605       -1.08606594103768
N            0.44010784437148       -0.03439736465859       -0.82731100969727
C            1.82506107801793       -0.02431316229511       -0.41064253845489
C            2.76008283991951       -0.23826372349843       -1.60534711483442
C            4.20622239850641       -0.29384905534602       -1.22584460398246
C            4.78536652853875       -0.11019461889242        0.00341396930335
C            6.21527539155198       -0.22522002866352       -0.14337961376297
C            7.16876857342914       -0.09504677209385        0.85337106869709
O            8.45701532863032        0.17809448767650        0.68982310209718
C            8.97508608518222        0.75365499113608       -0.49511702339245
C            6.45032992355162       -0.50775540709484       -1.53805969791127
O            6.95823840574374       -0.21125119873476        2.16428048190115
C            5.88026988971423       -0.96284467906741        2.68877196078015
C            5.24124962443077       -0.56896121375388       -2.17029208441460
C           -0.18476930415199       -1.31859191729977       -1.03758940042079
C           -4.18887762251460        2.76938672991611        0.71229581691180
C           -4.78401890713904        2.37663761347818        2.06234912950929
C           -3.86133054944219        4.26004649719065        0.70812541364653
H           -4.66938296320926        0.66573296737665       -1.38963315985897
H           -6.76104632405073       -0.15803844066065       -2.08082903970242
H           -6.90041266098505       -1.61322281578239       -3.09610889380495
H           -5.44126819794090       -0.60041564262170       -3.20429689942057
H           -4.90360876836220       -4.04653605983272        2.27260641979500
H           -5.14323233722725       -5.30517527672987        1.03610627456000
H           -3.51437057218720       -4.64536650566101        1.32042042828387
H           -3.15106696010117       -2.44382119195432        2.11245752124407
H           -2.36150111457385       -0.14984266982136        2.10710661440117
H           -3.27669466222698        2.44895001968659       -1.71869222056251
H           -1.88117091312688        3.20794333712950       -0.96469148577166
H           -2.03573123612785        0.25763195475774       -1.74052588749872
H           -1.36765116602094        1.54163038695586       -2.75280425581742
H           -0.92241320077892        1.46193178218455        0.92659279973151
H            0.37979198865831        2.01235040032773       -0.95078454057297
H            1.97951401541973       -0.81714295588092        0.32539687305396
H            2.05124530796776        0.93538347386764        0.05864186661032
H            2.60915199193215        0.57360767988603       -2.32469854807153
H            2.49612585815411       -1.17035188665868       -2.11430043553742
H            4.27946851174949        0.16846307293231        0.90722896622956
H            7.39876407218428       -0.72432607300362       -1.97991182951684
H            8.22545657069615        1.35584688856397       -1.01122995068017
H            9.35204066409956       -0.02461135963614       -1.16174838307248
H            9.80967037923467        1.38003206174665       -0.17952180319489
H            6.27202756980340       -1.48349064191828        3.56336473170676
H            5.07707815881858       -0.29507073082362        3.00736561940307
H            5.50251177966946       -1.68399500232395        1.96239818887966
H            5.07974849065510       -0.78598859122254       -3.20898828258492
H           -0.41262094831703       -1.47940065991430       -2.09327055332856
H           -1.11269198558288       -1.39004519268993       -0.46423708013922
H            0.48929728367494       -2.10448961398865       -0.70695336811890
H           -4.94936540742738        2.58603588576929       -0.05577155738025
H           -4.06536983513047        2.56179434816856        2.85419815894063
H           -5.06577659240569        1.32658682938129        2.07780158281050
H           -5.67255484464544        2.97182304203134        2.25532583341682
H           -3.08016368093803        4.47544719138011        1.43039443512627
H           -3.54883432423793        4.60554419811611       -0.27366206743230
H           -4.74894513180764        4.82009074677031        0.99031414023122
H           -0.95745860406666        2.78173545396406        2.85902108051030
