  72
        -99.33654384
 N         -1.2830407556        1.5321840410        2.4012128212
 C         -1.3897162544        2.0153869866        1.2127607455
 C         -2.2589008091        1.5510884168        0.2006603369
 C         -3.1142179859        0.4138675430        0.3333095644
 C         -4.0430396126        0.0556958474       -0.6715253175
 C         -4.8396409298       -1.0641148153       -0.5616685613
 O         -5.7576721486       -1.4622759236       -1.4738482907
 C         -5.9897823799       -0.6658811956       -2.6090821454
 C         -4.7278462332       -1.9091069266        0.5776332072
 O         -5.5238710793       -2.9946396030        0.5805296507
 C         -5.4641878552       -3.8834825907        1.6718017189
 C         -3.8290384221       -1.5528042291        1.5781726486
 C         -3.0491876785       -0.4229607687        1.4651457048
 C         -2.1661752531        2.2684297625       -1.1129456331
 C         -1.3187034704        1.4559888225       -2.1413095127
 C          0.0760359746        1.3478177546       -1.6774269020
 N          0.5928258319        0.3077784945       -1.0447774767
 C          1.9606462454        0.3369408872       -0.5866404157
 C          2.9135236467       -0.3600861687       -1.5777430075
 C          4.3310229253       -0.2614984047       -1.0877112925
 C          5.0384195992        0.9217493420       -1.2268851532
 C          6.3359828171        1.0336859467       -0.7529361324
 C          6.9549257097       -0.0403455250       -0.1302278825
 O          8.2078378004       -0.0459813526        0.3647871972
 C          8.9940366324        1.1173502275        0.2532416489
 C          6.2395219435       -1.2601628278        0.0126386680
 O          6.9190124465       -2.2554083410        0.6182115724
 C          6.3123032272       -3.5173278151        0.7596062836
 C          4.9395814992       -1.3455909418       -0.4612438283
 C         -0.1184779658       -0.9410898655       -0.9043872554
 C         -5.3379732294        3.5803062986        1.7453298182
 C         -5.1642006977        2.2972417682        2.4282243864
 C         -4.2353085093        4.5022943394        1.4564208346
 H         -4.1584629366        0.6812424654       -1.5400698976
 H         -6.3174717001        0.3417200045       -2.3343616019
 H         -6.7855339012       -1.1650424450       -3.1577492994
 H         -5.1006506444       -0.6009620792       -3.2447903931
 H         -5.7558656657       -3.3918839601        2.6039949843
 H         -6.1741846725       -4.6756037870        1.4441324230
 H         -4.4633680966       -4.3128551827        1.7831082129
 H         -3.7319456682       -2.1640114870        2.4607445909
 H         -2.3595321736       -0.1618037657        2.2514737068
 H         -3.1510252503        2.4391704925       -1.5459708314
 H         -1.6946032008        3.2426850144       -0.9766222846
 H         -1.7773745692        0.4790789834       -2.2814224447
 H         -1.3386691215        2.0003141929       -3.0874731182
 H         -0.7811089073        2.8808625226        0.9093341883
 H          0.7005953201        2.2242954473       -1.7545505368
 H          2.0179710394       -0.1582461937        0.3865889743
 H          2.2778739841        1.3739528594       -0.4589788864
 H          2.8211088278        0.1280721257       -2.5506254090
 H          2.6268997050       -1.4065910317       -1.6896899468
 H          4.5847407624        1.7681112633       -1.7199857030
 H          6.8616129458        1.9657878011       -0.8796437507
 H          8.5435669786        1.9584515043        0.7891593796
 H          9.1542559849        1.3941523296       -0.7930357917
 H          9.9494994126        0.8686284504        0.7108577125
 H          7.0599354025       -4.1486172475        1.2357418077
 H          5.4235447397       -3.4673330067        1.3968277541
 H          6.0435465801       -3.9446152246       -0.2115207605
 H          4.3893551611       -2.2676236967       -0.3576275747
 H         -0.3532673399       -1.3688048486       -1.8808315509
 H         -1.0469682787       -0.7949853642       -0.3505405553
 H          0.5001156272       -1.6463961993       -0.3565365319
 H         -6.3361058291        3.8822332099        1.4632011773
 H         -4.1156675126        2.0531011458        2.5767925872
 H         -5.6455533850        1.4883214270        1.8707965835
 H         -5.6621784151        2.3148998904        3.4035023922
 H         -3.2730043684        4.0607912740        1.7010776049
 H         -4.2419834617        4.8022543921        0.4048617806
 H         -4.3548156674        5.4299018220        2.0257904520
 H         -0.6244817309        2.0007961851        3.0108913885
