25
 energy: 37.586853864188 xtb: 6.6.1 (8d0f1dd)
C            3.62423253363735        1.85739379121302        0.11161297647690
N            2.90762584406013        0.60815448135150        0.08726283453381
C            3.43183032921465       -0.60853549329640        0.10480918234638
N            2.45094559998619       -1.53423225466167        0.07095219222947
C            1.23550984479970       -0.87944951202203        0.03006463040924
C            1.54581523268853        0.48754374348333        0.04112033117481
C            0.48043933732771        1.46133475907983        0.00910999396194
O            0.63750118526940        2.67478056863537        0.01558248938568
N           -0.75139304610706        0.84978560067795       -0.02920340743386
C           -1.93021278078442        1.69717604287059       -0.05830774641467
C           -1.00698845829657       -0.55900914208173       -0.04417571169575
O           -2.15544277628878       -0.93358088042639       -0.08611725480429
N            0.04836991798018       -1.41221203858361       -0.01095484557565
C           -4.59381240695073       -3.65199005434136       -0.19688544450515
H            4.21303840211388        1.94002749497882        1.02557232579580
H            4.29181616444251        1.92928331594069       -0.74739141481189
H            2.89514743973349        2.66773129006494        0.07530116161085
H            4.47941286646177       -0.83002887441155        0.14077661822249
H           -1.60094780076994        2.73395192365793       -0.04739750085413
H           -2.51124239959296        1.49196503731769       -0.95760121048416
H           -2.55677781609549        1.48828964418842        0.80916420724143
H           -4.98269786951706       -4.06459511430151        0.71011739398295
H           -4.91300693216188       -4.04942570213376       -1.13712944272512
H           -3.89794167044679       -2.84040618175161       -0.16426364019419
H            2.57099356426927       -2.53492365670546        0.07501519432455
