25
 energy: 22.953530451422 xtb: 6.6.1 (8d0f1dd)
C            3.23823315008919        1.35292507713616        0.13772189056323
N            2.43724730057192        0.13254766955222       -0.02415067252113
C            2.77254235186088       -1.21474784855326        0.07122530697073
N            1.61491381751418       -1.96102849450399        0.06591280570544
C            0.50104114915641       -1.19877547354170       -0.05474531210480
C            1.01775443632269        0.13339414648717       -0.11603641658175
C            0.20677826523970        1.27997369350869       -0.16277381332577
O            0.50230153238842        2.47499731060507       -0.26570146246644
N           -1.16638033650425        0.91712846037229       -0.08425726037649
C           -2.12141169605641        2.01009393108436       -0.04118280621622
C           -1.70688740463614       -0.31655356634012       -0.06838775485821
O           -2.92629785580129       -0.38228667865537       -0.03867879132041
N           -0.90477580050717       -1.49960893311251       -0.07461597993852
C           -1.91050109433331       -2.65993567358142       -0.08909867218618
H            3.97873069478224        1.30852719671342        0.94920125580050
H            3.81407876788423        1.63469433240629       -0.76173569508821
H            2.55934678029036        2.19040181011671        0.36870071494505
H            3.74759490384462       -1.65724545201018        0.12449221131463
H           -1.53909864579855        2.93124878656021       -0.04385784340438
H           -2.77061974527263        1.94216330512273       -0.90789547739238
H           -2.71552449980738        1.93815263696570        0.86675790756232
H           -1.95257827333779       -3.27262238469244        0.81358913746666
H           -1.91104328074881       -3.29082572250322       -0.97446985968400
H           -2.84195177241847       -2.10782037235990       -0.10195256348481
H            1.61779985176230       -2.96255627763405        0.14761599399951
