25
 energy: 50.671930840710 xtb: 6.6.1 (8d0f1dd)
C            3.26165293991838        1.59894781374111        0.18422899549978
N            2.64863427465486        0.30286776197346        0.01565923732246
C            3.09270595034676       -0.93011011781297        0.21388171392776
N            2.06446206823671       -1.82219635308810        0.16406383322812
C            0.88463925397063       -1.12832399979052       -0.09264928175565
C            1.30883624315525        0.20475879479944       -0.20031610679376
C            0.37613781239446        1.27008789937740       -0.36389742802012
O            0.65917119485728        2.43957800420649       -0.58493721305292
N           -0.91457346436500        0.83492299168291       -0.20217415283742
C           -1.93944444657542        1.85232607793972       -0.01430992943386
C           -1.31712123323132       -0.50474138582682       -0.00231071213159
O           -2.48798638921966       -0.63144329282655        0.27617152043026
N           -0.38634185851793       -1.50268727799779       -0.08565097259607
C           -3.41546463435626       -3.14942561250475       -0.22460084471118
H            4.30293754323740        1.53755655187040        0.46468536766837
H            3.15438238269118        2.20663293170999       -0.70488254194578
H            2.71389300004815        2.15250305617951        0.94253598191696
H            4.12564477997982       -1.18998245311817        0.27818401835723
H           -1.41426888162643        2.80246338152125       -0.08186052414490
H           -2.70961836005219        1.72988332541509       -0.77022761892764
H           -2.40498780069984        1.72012745019219        0.96582816182818
H           -3.44502630369013       -3.58776534920443        0.74820848977368
H           -3.35149897528879       -3.72460725124858       -1.12102679672395
H           -3.54265007317797       -2.08855564930829       -0.29776137018048
H            2.17676587354104       -2.81937612923755        0.30375116628374
