25
 energy: 41.567913685034 xtb: 6.6.1 (8d0f1dd)
C            3.44562146940582        1.72708163485229        0.12928324952894
N            2.75717361656266        0.46010928381037        0.03515426004214
C            3.23543097537352       -0.77004276628547        0.17920779760882
N            2.23360074020863       -1.68282252832466        0.13084016248527
C            1.03001310065049       -0.99596282637808       -0.02668066975437
C            1.40182819504591        0.35801004320705       -0.11718014399645
C            0.41681579581168        1.38848167127661       -0.23384713784379
O            0.67045694891622        2.58587166639543       -0.33289064738985
N           -0.84317324839562        0.85616295666056       -0.16768325480288
C           -1.93432034151553        1.79911118601097       -0.03129384351807
C           -1.18031738608033       -0.53203324696249       -0.02093084983404
O           -2.34965874441827       -0.78996589428039        0.12956053289880
N           -0.19148939459254       -1.46341509770947       -0.03612311258873
C           -3.96266304554359       -3.38301659597615       -0.22961137179582
H            4.36531825724677        1.65472931726149        0.72147750913243
H            3.66759811936483        2.12881282545388       -0.87169824669606
H            2.76312745206397        2.45777796561591        0.58566778366979
H            4.26700673246294       -1.00357922507462        0.29238982559078
H           -1.47712083020779        2.78899192091929       -0.06832401941474
H           -2.64056376844880        1.64022116667002       -0.84888933385169
H           -2.43648132646347        1.62503125399583        0.92157931530887
H           -4.11282401738106       -3.88332767557404        0.70711606533364
H           -4.04794140872783       -3.92102822153440       -1.15309018678115
H           -3.73582726328913       -2.34149921146239       -0.23595641852609
H            2.37293096502858       -2.68114418247036        0.27701414451463
