25
 energy: 53.433940417018 xtb: 6.6.1 (8d0f1dd)
C            3.22665246872608        1.55855218599363        0.19299309083504
N            2.62293563707976        0.26042699312971        0.00398776681574
C            3.05721959470779       -0.97646128570517        0.22253907654822
N            2.01643544021195       -1.85748629816084        0.16426194395583
C            0.84399363561611       -1.15878926680296       -0.09845476001778
C            1.28470518024646        0.16829707223900       -0.21446653658169
C            0.36422210238260        1.24707366821320       -0.38485306231501
O            0.66246049556195        2.40399140855188       -0.64961902327349
N           -0.92768020279734        0.84174257364904       -0.18122852411082
C           -1.95314322190472        1.86417567450914       -0.01084238329030
C           -1.34991829090031       -0.49039116062605       -0.00333037283414
O           -2.52557613077924       -0.58260579125959        0.27911411386829
N           -0.43976549425612       -1.50987546719051       -0.09208822283729
C           -3.28242773635233       -3.09313272271656       -0.22523795481932
H            4.26370600137310        1.50251713341650        0.47227222248984
H            3.12710839406978        2.17511617546520       -0.69330132563881
H            2.68887424954060        2.08055452086541        0.97900090224170
H            4.08535725113506       -1.25319487609161        0.27739382841935
H           -1.43306377834599        2.81381645165127       -0.07428366095348
H           -2.72582151363899        1.74535392082039       -0.76311050003424
H           -2.43231428760100        1.74074172242596        0.96188192749979
H           -3.27828594199605       -3.51870617697270        0.74940311714250
H           -3.18157228139837       -3.66422163071081       -1.11750196542622
H           -3.45999963467022       -2.04373683810918       -0.29801564102654
H            2.11270597903871       -2.85606715372182        0.29339271059669
