25
 energy: 56.242443238628 xtb: 6.6.1 (8d0f1dd)
C            3.20297314525031        1.54068850184334        0.19146235486742
N            2.59058333870191        0.24508207315901       -0.01573649968772
C            3.01143944089932       -1.00027543313376        0.21226672833920
N            1.96276925800434       -1.87415097084448        0.15220547079350
C            0.79568583888713       -1.16846193464664       -0.10674688921999
C            1.24956335114197        0.15283609817339       -0.23336755888343
C            0.34526066332068        1.25028528570609       -0.38588576966011
O            0.67850873502111        2.40359247137814       -0.62423236297021
N           -0.94713819301211        0.86490561260895       -0.17648924035805
C           -1.97166173493262        1.88364472856413       -0.01710374233120
C           -1.38535315297921       -0.46256151596368       -0.00435893943133
O           -2.56256974905154       -0.52002797238945        0.28624866078469
N           -0.49711078489808       -1.50143524947359       -0.09536020407482
C           -3.16376279248649       -3.01891747162702       -0.21938768065748
H            4.21706556743178        1.46477405483289        0.55293495973891
H            3.22275115451065        2.13345848184782       -0.72624697757701
H            2.61827830224945        2.09479906815883        0.93205103447033
H            4.03418624118739       -1.30341414691046        0.26532531218593
H           -1.45978874889904        2.83877307514583       -0.06885107304150
H           -2.72302117667541        1.76750055047140       -0.78765234837561
H           -2.46960927384903        1.76230333735519        0.94583096108296
H           -3.14296208705031       -3.43992189192395        0.74785175005766
H           -3.04880351150442       -3.58629113478154       -1.10085050157963
H           -3.38095354083115       -1.98487814567280       -0.28649164242089
H            2.04622412434159       -2.87412916340397        0.27627341997379
