25
 energy: 58.511658512948 xtb: 6.6.1 (8d0f1dd)
C            3.18461946916150        1.51815654190024        0.18414578990221
N            2.55531875834478        0.22946379520205       -0.03696035585155
C            2.96461224968559       -1.02406901871888        0.18099457221898
N            1.90428036234778       -1.88664892557015        0.13106123104118
C            0.74057729604633       -1.17103419074871       -0.11222743665010
C            1.20905835109608        0.14582807105187       -0.24482551495313
C            0.32217090836338        1.26469479975457       -0.36008543474848
O            0.67195316951138        2.42272670595793       -0.54480861178398
N           -0.97120819487680        0.88723275619664       -0.16406482750432
C           -1.99064864239626        1.90903005170971       -0.02236740402333
C           -1.42876379192913       -0.43424932423282       -0.01544709996227
O           -2.61551742412583       -0.46137030857910        0.24671328153460
N           -0.55908041220678       -1.49046979145946       -0.09958655091805
C           -3.03853392065874       -2.96665334460405       -0.20892379434468
H            4.16683237504204        1.41727550710295        0.63286941433207
H            3.32363970062625        2.06419797093707       -0.75391557379074
H            2.55212514750083        2.12202424262597        0.85196984769345
H            3.98065769071768       -1.35265904209850        0.24376705654301
H           -1.46070718296223        2.85468585708560       -0.06272144597960
H           -2.71823841536357        1.79627691504493       -0.81573980780920
H           -2.51078967161472        1.78935754079912        0.92873546376556
H           -2.95608036273822       -3.39235080959579        0.75159356919435
H           -2.88460727332929       -3.50936974214383       -1.09577612820196
H           -3.30972433350875       -1.95140407175361       -0.26104093405288
H            1.97586315671675       -2.88724512864195        0.25270409652656
