25
 energy: 43.669979991864 xtb: 6.6.1 (8d0f1dd)
C            3.39602608943232        1.70276794029492        0.14281769437719
N            2.72234914060067        0.43245705975846        0.02755121641262
C            3.19315486864969       -0.79331061117806        0.18842436672553
N            2.19537860948706       -1.70820073099191        0.14112681824113
C            0.99413668811375       -1.02664487409743       -0.04885178905091
C            1.37303245087648        0.32470995510256       -0.14821636922762
C            0.40269337266529        1.36516716536536       -0.28670933435629
O            0.66745189082299        2.55663906593621       -0.40686149450593
N           -0.86227499371715        0.85361423700737       -0.20083155858116
C           -1.93035581509580        1.81233372346930       -0.02094496122371
C           -1.21372276132470       -0.52499997271280       -0.02184740506053
O           -2.38330757970121       -0.75133073958833        0.17148110081737
N           -0.23886108937039       -1.47318146514474       -0.05329375211214
C           -3.82772804628075       -3.31898272708874       -0.22914212667780
H            4.35414326004964        1.61770246510324        0.66148222884736
H            3.53948071556806        2.15591250751181       -0.84478560316759
H            2.73946994681580        2.39823994249835        0.68026234150374
H            4.22089804802308       -1.02142266808578        0.30066600935313
H           -1.44667375312761        2.78928916547029       -0.06743409732658
H           -2.66314851099830        1.66772565011214       -0.81734607497154
H           -2.40584935358696        1.64521618899982        0.94775008317716
H           -3.94566849172122       -3.80642560765939        0.71804334710384
H           -3.87415731214516       -3.87489387914331       -1.14404781344593
H           -3.71462948081845       -2.25771630945122       -0.25988758572109
H            2.35780633592360       -2.69534774278800        0.30862861556890
