25
 energy: 60.001733870471 xtb: 6.6.1 (8d0f1dd)
C            3.18340633133766        1.47806961801536        0.17587087858525
N            2.52234188525421        0.20526454349965       -0.04729272115004
C            2.91933090127854       -1.05667086031663        0.15052221111331
N            1.84544151657221       -1.90330273691145        0.10823272885234
C            0.68631636658977       -1.17508427142134       -0.11190766963358
C            1.16919146267999        0.13869694363508       -0.23941273426599
C            0.29829096404636        1.27161075145805       -0.31986952246041
O            0.65466362608503        2.43407225613308       -0.46180119308214
N           -0.99787880397741        0.89208907227588       -0.14665110487009
C           -2.00726864358760        1.92827300081258       -0.02608872638476
C           -1.47529948023824       -0.41710756907660       -0.02930943363625
O           -2.67298067888724       -0.41685879311085        0.19283214015714
N           -0.61822777872864       -1.48791807917337       -0.10232652046165
C           -2.88438289332950       -2.93735442586477       -0.18865374899858
H            4.12488231868740        1.37356331622122        0.70625574736880
H            3.41296161213553        1.97375588778836       -0.76693239928399
H            2.51769180782303        2.13563811791877        0.75698564206371
H            3.92924502072521       -1.40513590026551        0.21733389701341
H           -1.44623761696364        2.85658915142437       -0.05385487140310
H           -2.71363306603141        1.82827954703871       -0.84024800292381
H           -2.55136313668977        1.81438136680858        0.91218683205949
H           -2.77025315663403       -3.37434494681566        0.76643110939391
H           -2.70390110011348       -3.46073088526577       -1.08226527518772
H           -3.22620227856356       -1.94515711329283       -0.22504134056952
H            1.90646527554729       -2.90463927133829        0.21898822459559
