25
 energy: 60.370941028365 xtb: 6.6.1 (8d0f1dd)
C            3.19731609584259        1.45488925434334        0.15080808411161
N            2.49393077197715        0.19386073560599       -0.06171510713756
C            2.87421599066625       -1.07782924925887        0.12134007154839
N            1.78754291136767       -1.91067033103789        0.09061835821820
C            0.63538842244056       -1.17003887028213       -0.10921408161044
C            1.12996215632138        0.14189865952559       -0.23312472639959
C            0.26998092248195        1.28508496861298       -0.28127323398144
O            0.63252300808950        2.45094754976162       -0.37924753861018
N           -1.03158526952138        0.90903721948655       -0.13224984314595
C           -2.03367331160122        1.95500169946620       -0.02992251263213
C           -1.52327456530437       -0.39343620293435       -0.04743986499318
O           -2.73074579768894       -0.38092845786404        0.12369574077838
N           -0.67604509472293       -1.47842547123359       -0.10673362288990
C           -2.70097616314797       -2.91260083154018       -0.16408013018638
H            4.08540299377000        1.33088257877094        0.76522458370839
H            3.53002097836364        1.93868078209050       -0.77989575475673
H            2.50805697587788        2.14690774960493        0.65397736044959
H            3.87772212524684       -1.44416687940451        0.18397729895614
H           -1.47154201288385        2.88382612780540       -0.04837648443771
H           -2.72222465658195        1.85876460461656       -0.86043377473376
H           -2.59277067115425        1.84362915747116        0.89901555511909
H           -2.58431810226403       -3.36778655697359        0.78564038064571
H           -2.52305316147252       -3.43189315582903       -1.06255205886909
H           -3.13818267661461       -1.95889188669074       -0.18691171487391
H            1.83431450801165       -2.91230708517895        0.20220189534641
