25
 energy: 37.614629285929 xtb: 6.6.1 (8d0f1dd)
C            3.60500727000265        1.84056448584977        0.11437862847642
N            2.88796609889249        0.59041800905327        0.07368702151652
C            3.40732734076424       -0.63057035383760        0.11991885697831
N            2.41643108517979       -1.54885128353750        0.08162190137354
C            1.20247425526178       -0.89068544521881        0.02590932983676
C            1.52409040511686        0.47523327599288        0.01281396607638
C            0.46777781486047        1.45721501170167       -0.02090202008465
O            0.63979369252397        2.67059156929191       -0.01173113165043
N           -0.76793220344203        0.85209695523681       -0.03670661277919
C           -1.93435611095362        1.71523671258657       -0.05672624440927
C           -1.03159954786325       -0.55636187141528       -0.03162309686446
O           -2.18224201444542       -0.92425090614435       -0.05331415875291
N            0.01410966692812       -1.42298946148795        0.00333000782782
C           -4.52291233256513       -3.59960497051888       -0.20534493996858
H            4.26662151465973        1.88124649415227        0.98270470993972
H            4.19465999942044        1.98190485057902       -0.79715947663751
H            2.87390358709958        2.64840826949880        0.18189929551791
H            4.45346444595332       -0.86422809784584        0.17067201290967
H           -1.58754269002935        2.74901919120498       -0.05514938238984
H           -2.52523462774924        1.50811886857252       -0.94930550697950
H           -2.54855178011939        1.51631948048941        0.82148077723765
H           -4.85808647247664       -4.05697717990979        0.70213857912662
H           -4.79107571276077       -4.04454851712319       -1.14136308136022
H           -3.87071157833316       -2.75140121721271       -0.17405475053083
H            2.52011137681870       -2.55094594776419        0.10183497476268
