25
 energy: 35.746158601203 xtb: 6.6.1 (8d0f1dd)
C            3.22650137891717        1.39002724621280        0.14262002594481
N            2.45031043807733        0.15296149576293       -0.04976617427008
C            2.79916184796043       -1.18170934835002        0.09003825227269
N            1.65917045965368       -1.95623289818707        0.07824097108951
C            0.52146318498285       -1.22621039924206       -0.07527180459215
C            1.02985120021757        0.11474584872319       -0.15725037504488
C            0.23123039840468        1.26437112769540       -0.20442225659700
O            0.54279406552040        2.45670272734187       -0.31380054437004
N           -1.13539311515300        0.90516708212626       -0.09879612635183
C           -2.09357750806378        1.99708641454674       -0.03812419763004
C           -1.68008588138314       -0.32614215977491       -0.06682770847892
O           -2.90217364206112       -0.34510073077127       -0.00335983397278
N           -0.91169570400848       -1.53229744176432       -0.09347645186467
C           -2.01541941775307       -2.65537500726654       -0.10902063151397
H            4.02234432238511        1.31010920318722        0.89386714445273
H            3.74362726404429        1.75089991455723       -0.77041542979825
H            2.53415920912179        2.18399542806171        0.47232705084672
H            3.78707303551179       -1.59264694159883        0.13801512921671
H           -1.50968401302350        2.91432094381459       -0.04712026998292
H           -2.75672703404424        1.91728102275262       -0.89359142533154
H           -2.67673606251855        1.91328989617173        0.87693526139246
H           -2.10829503276635       -3.26619876152844        0.79179553896674
H           -2.06760497262871       -3.29410993241696       -0.98636983650592
H           -2.90890312017813       -2.03967101261834       -0.11953957186368
H            1.69361903164331       -2.95735827354884        0.16899010019177
