25
 energy: 45.748979136361 xtb: 6.6.1 (8d0f1dd)
C            3.34821894200055        1.67405994995575        0.15567971345825
N            2.69291468013663        0.39663227235118        0.01991440238278
C            3.15986005849548       -0.82790013184319        0.19280075389976
N            2.15752026920534       -1.74250226666929        0.14985927328200
C            0.96233002435067       -1.05865611044552       -0.06970413312921
C            1.34872299594648        0.28896278249211       -0.17351197010197
C            0.38750715186418        1.33761007030748       -0.33089396308275
O            0.66068066207185        2.52272813407135       -0.47976041754345
N           -0.88397285049588        0.84927943826028       -0.21478331393819
C           -1.93230620284479        1.82977202079282       -0.01702873388943
C           -1.24761785594768       -0.51952284138046       -0.01819288468514
O           -2.41648792770335       -0.71444581865476        0.21207497008396
N           -0.28463885789267       -1.48144796021818       -0.06884982321207
C           -3.69215159854020       -3.25145639644247       -0.22768475357433
H            4.33870471713007        1.58775447467446        0.59933253178536
H            3.41085205006899        2.18182532136853       -0.80791718204386
H            2.72122350530056        2.32509162722702        0.77050417127729
H            4.19778707884663       -1.04330841178850        0.28071849523286
H           -1.44223278999591        2.80369599327498       -0.07368184241171
H           -2.68590443275633        1.68849604188991       -0.79183737208776
H           -2.38003800684687        1.67109091673783        0.96640341072948
H           -3.77890852344116       -3.72284917869622        0.73022317529005
H           -3.69861495255178       -3.82272562048162       -1.13344131977458
H           -3.68772353412340       -2.18237186085319       -0.28220060956726
H            2.30332699570210       -2.73413039262808        0.30984725420821
