25
 energy: 13.277591370099 xtb: 6.6.1 (8d0f1dd)
C            3.25896878892978        1.32639574048709        0.12848840022840
N            2.42499071164643        0.13220927136581       -0.00965377963511
C            2.74430728545786       -1.22611576642789        0.05819984566419
N            1.57526845394220       -1.95388259380729        0.05432693141151
C            0.48577452526724       -1.16208053807864       -0.03644639957505
C            1.00681235353275        0.16164477827136       -0.07841371663872
C            0.17884917066380        1.30011753483603       -0.11982031139270
O            0.46620523572213        2.49709252752001       -0.18826170271690
N           -1.20071739080924        0.92980890892230       -0.07149147916309
C           -2.14866991588097        2.03084350959526       -0.04323151083127
C           -1.73703409391033       -0.30689069347280       -0.06695945907490
O           -2.95155720738350       -0.42275432334683       -0.05926992955624
N           -0.89910200217331       -1.46042620703147       -0.06209097160316
C           -1.81456693250360       -2.65765313123814       -0.07564010869791
H            3.93452724298837        1.31676817427123        0.99608834669523
H            3.90283242841685        1.53087373423780       -0.74630581252123
H            2.59205023985870        2.18953964692063        0.26790717808179
H            3.70636618134128       -1.69871204290865        0.10931799481750
H           -1.56534047510466        2.95241867039502       -0.03957392452716
H           -2.78463557422085        1.97272669568555       -0.92028885009383
H           -2.75367745447861        1.96670409647135        0.85727705491103
H           -1.79305040353112       -3.26956055368190        0.82697911612886
H           -1.75429714575156       -3.27897127054030       -0.96690681699912
H           -2.79207802075627       -2.19081534150633       -0.09158855079605
H            1.54749244317262       -2.95629501714115        0.12372704695656
