  25
        -42.13731884
 C          3.0689239120        0.8523071180        0.7889212588
 N          2.3256958047        0.1281081902       -0.2773347031
 C          2.6207819640       -1.3242971684       -0.2454724257
 N          1.4465545569       -1.9132185866       -0.1180992302
 C          0.3753556544       -1.0281216516       -0.0734653609
 C          0.8858463988        0.2366148696       -0.1724049167
 C          0.0631468786        1.4156237089       -0.1602412412
 O          0.4639028278        2.5530272260       -0.2363569715
 N         -1.2874218333        1.0755936470       -0.0414250858
 C         -2.2522876705        2.1656160320       -0.0215457804
 C         -1.8345585605       -0.1886752445        0.0650392239
 O         -3.0124103198       -0.3765860024        0.1691547436
 N         -0.9323248706       -1.2841111866        0.0460411681
 C         -1.4651032221       -2.6280856904        0.1603035458
 H          2.7682540948        0.4675373769        1.7605118537
 H          4.1365825102        0.6931445087        0.6530717015
 H          2.8327155311        1.9140688458        0.7271159440
 H          2.6767329835        0.5267131730       -1.1700460526
 H         -1.7055692972        3.1016467164       -0.1091219699
 H         -2.9516565744        2.0555911601       -0.8503014084
 H         -2.8184853310        2.1422790895        0.9094261744
 H         -1.0869429828       -3.1156494845        1.0593961471
 H         -1.2130944338       -3.2176566452       -0.7216360161
 H         -2.5492632862       -2.5440923858        0.2322419293
 H          1.3673442173       -2.9204960743       -0.0579842824
