  25
        -42.15252235
 C          2.9844053755        1.5587536784        0.1169628775
 N          2.3243221513        0.4970105880       -0.0552690073
 C          2.5688580645       -2.2527571094       -0.1426797920
 N          1.2708130252       -2.1365261600        0.0452303439
 C          0.4799095769       -1.0107139763        0.0151993179
 C          0.9883443247        0.2888251702       -0.0038262797
 C          0.0635434563        1.4356224394       -0.0048027218
 O          0.4469056912        2.5846710651        0.0108584674
 N         -1.2783045996        1.1112337386       -0.0156637871
 C         -2.2526472239        2.1933647305       -0.0375504084
 C         -1.7983693335       -0.1611335660        0.0033634727
 O         -2.9805246935       -0.3720452852       -0.0022285858
 N         -0.8719368357       -1.2186424249        0.0304219526
 C         -1.4426112546       -2.5555698036        0.0267974226
 H          3.1582885558       -1.3842877841       -0.3757629840
 H          4.0476871760        1.5282361380       -0.0735718425
 H          2.5480533435        2.5045085419        0.4436540667
 H          3.0139016876       -3.2278656996       -0.0607700207
 H         -1.7129583988        3.1373202878       -0.0477970739
 H         -2.8789016152        2.1048848477       -0.9252325418
 H         -2.8930354528        2.1326071573        0.8424247449
 H         -1.2389311032       -3.0792734313        0.9634648407
 H         -1.0953666008       -3.1317777549       -0.8321083261
 H         -2.5244027079       -2.4361005182       -0.0581594429
 H          0.7502552208       -2.9931181539        0.2374967959
