25
 energy: -42.183785948100 gnorm: 0.008128991904 xtb: 6.6.1 (8d0f1dd)
C            3.06981670798202        0.10228980160865        0.85244580867862
N            2.31928293151204        0.50119838262377       -0.34395870022396
C            2.74020918429020       -0.92426033444230       -0.16687341815609
N            1.55524602776776       -1.67190354755595        0.00135862572440
C            0.48123469187616       -0.81395277031206       -0.03171177143514
C            0.89487448288772        0.47746665957226       -0.24713350235316
C           -0.01285988929520        1.58566527897482       -0.38565318767261
O            0.30907141175701        2.72658810825947       -0.61554921895030
N           -1.33680898400028        1.16985255557017       -0.21473137260352
C           -2.37616924330293        2.18826016063781       -0.30197881029279
C           -1.79082104660586       -0.10706262797522        0.02883712442493
O           -2.95084060100701       -0.37328873659498        0.16471298091487
N           -0.80987531197915       -1.13272736761953        0.11073687100419
C           -1.24957672397673       -2.49511414897211        0.33835271000288
H            4.08779913673694        0.45859682781571        0.92459686935951
H            2.73618050821563        1.16417498618704       -1.00837417591140
H            2.50582824574720        0.13484205724845        1.77490347256589
H            3.51615493531750       -1.35380024232595       -0.79004891932266
H           -1.88934618490293        3.15492400178501       -0.40325477270789
H           -3.01299093943666        1.99613259927513       -1.16481330514112
H           -2.99121307056238        2.16144658151803        0.59622596052587
H           -0.73258973356250       -2.92076399733616        1.19736869126540
H           -1.07678956325888       -3.10926617300472       -0.54635338248971
H           -2.32026684185637       -2.46209136480989        0.53768723999883
H            1.49488138375636       -2.63896814852826       -0.27562019930453
