25
 energy: -42.211628685742 gnorm: 0.007583157141 xtb: 6.6.1 (8d0f1dd)
C            3.29090617760031        0.93084460684418        0.08974991657292
N            2.37506169286202       -0.04383899716052        0.02013764284603
C            2.59261606405920       -1.37597090576596       -0.10215061774068
N            1.39677663658608       -2.04801988339090       -0.11391755646712
C            0.39800109077939       -1.14435884929253       -0.00266392390519
C            0.99022473355597        0.12941893656353        0.05967224238963
C            0.18970088704614        1.26874999429213        0.01321848209540
O            0.63515518134226        2.51803798514240       -0.09599441052909
N           -1.16235986884362        1.06523251699256        0.04057465195514
C           -2.07382796379290        2.19787153271958        0.03022549962759
C           -1.78137588298450       -0.18904575593101        0.06374008684237
O           -2.97769280488007       -0.29348430649357        0.10429070288682
N           -0.94567616671824       -1.31469121836946        0.01871327375249
C           -1.54418638415679       -2.63390944059763        0.00224442037093
H            3.05500082145437        1.87975403674315        0.52147002928147
H            4.31482299890000        0.69067585923955       -0.08315945160934
H            1.59690475125491        2.52316270182249       -0.25590950680742
H            3.55295360202270       -1.83712090068325       -0.17240869624208
H           -1.50062845186731        3.11901915464502        0.04809562478301
H           -2.69675794096227        2.15972720516142       -0.86410976896126
H           -2.72884347765957        2.14281884893843        0.89989181399491
H           -1.20979548069644       -3.21282831037022        0.86393531202723
H           -1.29015491391238       -3.15766086297154       -0.92022473617332
H           -2.62472085170901       -2.50726018230122        0.05395560720109
H            1.30832706482004       -3.04888522417673       -0.18820502029156
