  72
        -99.34038421
 N         -2.3915909148        2.8207322568        2.8251764273
 C         -2.2754521320        1.9351982291        1.9509635709
 C         -3.1076356903        1.8823540929        0.6963846135
 C         -3.8271708351        0.5468218436        0.6143291691
 C         -4.4366463223        0.1531636031       -0.5777097802
 C         -5.1282250588       -1.0433130082       -0.6762449724
 O         -5.7537182940       -1.4925092578       -1.7842231679
 C         -5.8504655400       -0.6538859035       -2.9119984005
 C         -5.2101671396       -1.9002411882        0.4558908944
 O         -5.8857011260       -3.0490050097        0.2672372143
 C         -6.0326218545       -3.9452856024        1.3452300558
 C         -4.6147929396       -1.4944100097        1.6411194844
 C         -3.9406771306       -0.2849980920        1.7191123533
 C         -2.0647110810        2.0055620321       -0.4608177201
 C         -1.2522259922        0.7686621200       -0.6173049644
 C          0.0669271237        0.7100894765       -0.3698729371
 N          0.8646659597       -0.4127692284       -0.4466508058
 C          2.2663694384       -0.2685626468       -0.0991395529
 C          3.1301135558       -0.0418528273       -1.3529586185
 C          4.5855484678        0.0167563540       -0.9838063667
 C          5.2539202182        1.2271567428       -0.8956819447
 C          6.5936636760        1.2739527042       -0.5428402128
 C          7.2937650576        0.1084052409       -0.2630130601
 O          8.5912626003        0.0371041855        0.0830435015
 C          9.3477733572        1.2232267242        0.1659451587
 C          6.6141040191       -1.1397450114       -0.3427373240
 O          7.3633431340       -2.2214802272       -0.0542851431
 C          6.7802006138       -3.5017230932       -0.1141718503
 C          5.2754424041       -1.1605646293       -0.7007396858
 C          0.4537755689       -1.5941904699       -0.8804216955
 C         -4.1721253814        3.0095353876        0.5928412344
 C         -5.1843654366        2.9174494819        1.7328557869
 C         -3.5712432187        4.4112421843        0.5464422461
 H         -4.3757919270        0.7947133704       -1.4417477230
 H         -6.3346604522        0.2953545422       -2.6637419894
 H         -6.4664438065       -1.1964528760       -3.6264866707
 H         -4.8691090715       -0.4604543530       -3.3575592307
 H         -6.5864909335       -3.4901643449        2.1719202175
 H         -6.6001742456       -4.7858212668        0.9505384033
 H         -5.0622863493       -4.2995463272        1.7065919397
 H         -4.6811700133       -2.1115650517        2.5222228338
 H         -3.5175241316        0.0105483955        2.6663792077
 H         -2.6066515312        2.2021613715       -1.3879542728
 H         -1.4177378053        2.8589881107       -0.2567759139
 H         -1.8003545143       -0.1115229581       -0.9149219253
 H          0.0391979830        0.4393376189       -3.6622571850
 H         -1.5218691549        1.1320869259        1.9840416078
 H          0.5951943587        1.6010676578       -0.0610478248
 H          2.6005929536       -1.1761273763        0.4087304050
 H          2.3897125378        0.5716028117        0.5863317842
 H          2.8283160480        0.8878785783       -1.8369037727
 H          2.9539171332       -0.8624776996       -2.0515017505
 H          4.7360148803        2.1483305090       -1.1146659502
 H          7.0878776330        2.2301018814       -0.4910544320
 H          8.9662541756        1.8861533803        0.9486489037
 H          9.3636408565        1.7561429494       -0.7891043603
 H         10.3577827592        0.9082576458        0.4208732101
 H          7.5715172591       -4.1967129745        0.1600998870
 H          5.9525704980       -3.5991381787        0.5959704339
 H          6.4278890215       -3.7351402824       -1.1236206629
 H          4.7559177274       -2.1029226130       -0.7790599561
 H          0.2667363830       -0.2635663264       -3.9049687715
 H         -0.5516484298       -1.7357305554       -1.2189542809
 H          1.1385804649       -2.4187763878       -0.8855342508
 H         -4.7112151736        2.8395609426       -0.3470220506
 H         -4.6993901048        3.1351246824        2.6794028335
 H         -5.6304464167        1.9269414314        1.7834973411
 H         -5.9788686211        3.6426421954        1.5759716102
 H         -2.9630535904        4.5884274069        1.4280271716
 H         -2.9686019486        4.5646824083       -0.3450675170
 H         -4.3750982579        5.1427307937        0.5343020853
 H         -1.7601080031        2.7871209717        3.6193230971
