72
 energy: -99.429163283210 gnorm: 0.007327438275 xtb: 6.6.1 (8d0f1dd)
N           -1.63795889526289        1.02682207989744        2.05987605985816
C           -1.53846238535287        1.04935939578347        0.81033988040456
C           -2.73082369893820        1.13036963776700       -0.11931319845259
C           -3.70303051387179       -0.01326676277491        0.06678797381691
C           -4.79491924357420       -0.12527151666692       -0.75104976586415
C           -5.73158430984136       -1.16282806061660       -0.62612708554181
O           -6.82866993444110       -1.30530935543226       -1.36617830537399
C           -7.16490895991365       -0.34479604633474       -2.34338613369184
C           -5.52729369633420       -2.19416543334975        0.36181019388043
O           -6.45108360740729       -3.17484924924653        0.33467605139093
C           -6.34475012283992       -4.22822298329162        1.26641599449629
C           -4.46278690392447       -2.11123817246757        1.19993112017238
C           -3.48774358232703       -0.99343094201419        1.16094420992569
C           -2.10229711077042        1.05871678683149       -1.53672515555236
C           -0.72671772416649        0.42472738228500       -1.34720063168231
C           -0.25031781734165        1.01178661278328       -0.00819126684796
N            0.81417850980113        0.35904769317023        0.70415870367052
C            2.15398072719542        0.84858977547109        0.51566472652242
C            2.78307979011459        0.55564923568508       -0.87074047374291
C            4.27522531149675        0.63524272402420       -0.76658130903801
C            4.95540031383060        1.82125762412955       -1.00209660102957
C            6.32890725779351        1.89790542711095       -0.83414794848513
C            7.05486627400436        0.78887273001660       -0.41972708194413
O            8.38258203153766        0.75051588300862       -0.20976820393843
C            9.14564138538075        1.92064167954767       -0.39323842704853
C            6.36768060382970       -0.43559878870227       -0.18301317479703
O            7.14475257990596       -1.46407709926139        0.20820148299197
C            6.55277466735990       -2.71398223857122        0.47078880006778
C            4.99418459327129       -0.48629349281471       -0.35773003804259
C            0.69950942370525       -1.06450917671111        0.89951178305922
C           -3.47771792671452        2.48629939540749        0.11476250534663
C           -4.30276486126955        2.45020887491901        1.39769058614967
C           -2.51887616273434        3.67407146958209        0.17628819359018
H           -4.95325204222551        0.60968991040740       -1.52564700095330
H           -7.29162404427290        0.64700502505392       -1.90044106823341
H           -8.11254281648305       -0.67643323310632       -2.76346777708751
H           -6.41388804845580       -0.30158120167399       -3.13722732728679
H           -6.39068066770646       -3.85715177047229        2.29424906056329
H           -7.19812061041362       -4.87545066390673        1.07600793317292
H           -5.41981792148225       -4.79466116597101        1.12229852707666
H           -4.28253058484235       -2.86553266866068        1.94761166214843
H           -3.52156195289177       -0.44041516563816        2.11657396088164
H           -2.71490294329951        0.47623972527982       -2.22183873983644
H           -1.99469860772913        2.05993073094928       -1.95204274206210
H           -0.82142033161979       -0.65875137833381       -1.26661069366735
H           -0.05017910997561        0.65365424031910       -2.16875394507971
H           -2.46953890881290       -1.38847369869686        1.13184469041584
H            0.05378747712797        2.05365712160737       -0.16628615381347
H            2.77911268238264        0.38530694840362        1.28375230411440
H            2.15908190830011        1.92786538826082        0.68838913898940
H            2.41167173125928        1.27253797857946       -1.60331878419857
H            2.49048389230523       -0.44698211779987       -1.18595542741797
H            4.41443935118005        2.69790639706658       -1.32359965126996
H            6.82976744686225        2.83241352753041       -1.02737003228284
H            8.81447331788361        2.72247534553147        0.27353405315522
H            9.10504931866409        2.26686312454704       -1.43024061778021
H           10.16841075809404        1.64353031380565       -0.14484995341205
H            7.36906069958860       -3.36640833790401        0.77460107804158
H            5.82105266430449       -2.64868477651473        1.28234866501656
H            6.07328446660290       -3.12610311935878       -0.42258796895429
H            4.46291759597721       -1.40862880814176       -0.18140362487650
H            0.93919428049177       -1.65208853549320        0.00375122512315
H           -0.31596975039690       -1.30683302135824        1.20921874393680
H            1.38075826220519       -1.36463705363669        1.69554807974615
H           -4.14887495940810        2.62903644973351       -0.73831937670057
H           -3.65961091693938        2.21117190344134        2.24079293397459
H           -5.09797769518283        1.71174011366493        1.34016201943326
H           -4.75301074395938        3.42391737883136        1.57141218419673
H           -1.89771386910977        3.61681602054145        1.06659662288056
H           -1.87544905263237        3.73464055280406       -0.69789711893495
H           -3.09325867161838        4.59562963152968        0.22647678362477
H           -0.75946201898495        0.99868332209540        2.57131971569394
