  25
        -42.19373521
 C          3.5924515425        1.3444339971       -0.0848134131
 N          3.4150044395        0.3388435519       -0.8037638532
 C          1.3200616138       -1.3243105962        0.2968605462
 N          0.5359852062       -2.4417608624        0.2047541194
 C         -0.7644412241       -2.1111437265        0.0613758028
 C          0.4691019739       -0.2499075866        0.2011935232
 C          0.3526992372        1.1994474101        0.1816353581
 O          1.1968897048        2.0682456382        0.2552618382
 N         -1.0209263035        1.4255587047        0.0375365655
 C         -1.6065111040        2.7414643671       -0.0234861106
 C         -1.7693036271        0.2734581545       -0.0389113370
 O         -2.9537137531        0.1385282904       -0.1609431173
 N         -0.8109070973       -0.7662150966        0.0617262217
 C         -1.9117219274       -3.0210318525       -0.0524506300
 H          3.5533192505        1.2285782504        0.9913791857
 H          3.4726793547        0.4270198468       -1.8135853900
 H          3.8118591445        2.3526067610       -0.4430453728
 H          2.3865720976       -1.3539987348        0.3879458667
 H         -0.7978487500        3.4698059233        0.0125087296
 H         -2.1752767278        2.8555940414       -0.9474716435
 H         -2.2814762672        2.8935310829        0.8205371723
 H         -1.9294446727       -3.7288282687        0.7771620963
 H         -1.8629499975       -3.6007489504       -0.9763444327
 H         -2.8358876257       -2.4460776907       -0.0527189647
 H          0.8819175550       -3.3911722274        0.2397110681
