  25
        -42.13129537
 C          4.0465794206        0.7766521358       -0.0082202772
 N          2.9727981916       -0.1773526841       -0.0278833836
 C          3.0596013896       -1.4854100873       -0.0597101466
 N          1.8637221208       -2.0585439758       -0.0372367394
 C          0.8334216744       -1.0656567481        0.0201655986
 C          1.6126117130        0.1868268127        0.0255131511
 C          1.1360568150        1.4179241281        0.0628277180
 O          0.6514046988        2.4596238657        0.0911666199
 N         -3.1187299318        1.2809662613       -0.0468130879
 C         -3.1063624808        2.6916069331       -0.0891644063
 C         -3.7569516793        0.2806117343       -0.0264670256
 O         -4.1790266464       -0.7992877118       -0.0069844706
 N         -0.4052737910       -1.1853860353        0.0583302112
 C         -1.1133674121       -2.4298430462        0.0512497488
 H          4.1483051930        1.2147565335        0.9887423483
 H          4.9811063334        0.2861670225       -0.2765629609
 H          3.8435385551        1.5779937381       -0.7205618544
 H          3.9951828024       -2.0171197953       -0.1011597575
 H         -2.0654222951        3.0148581717       -0.0573766004
 H         -3.5669727504        3.0558345048       -1.0099025668
 H         -3.6381972366        3.1114672430        0.7671427904
 H         -0.9040004281       -3.0059444221        0.9560557335
 H         -0.8547431639       -3.0406882790       -0.8175332242
 H         -2.1761723151       -2.2003562422        0.0213643559
 H          1.6817796268       -3.0507577069       -0.0579046649
