25
 energy: -42.128234698512 gnorm: 0.005221336311 xtb: 6.6.1 (8d0f1dd)
C            2.93565914920128        1.31386949967163       -0.08077335164885
N            2.21788234474835        0.06751557958858       -0.04161384093837
C            2.73837432943255       -1.15639905595650        0.04665824041569
N            1.74174377658822       -2.07534338311461        0.06210601281115
C            0.55094183676728       -1.41048125214440       -0.01659421681101
C            0.84989400488444       -0.05592583456901       -0.08081962422094
C           -0.20399493367285        0.93651745741063       -0.11414492522988
O           -0.07861124261759        2.13931917072711       -0.18966387946049
N           -1.45252919682046        0.30885218912402       -0.04058984225248
C           -3.01605193279065        3.36198062711784        0.13826007159517
C           -1.74372598478792       -0.98425915440423       -0.01306954301863
O           -3.40208792008147        2.22441607955421        0.14078886372513
N           -0.72346930330893       -1.87217889313452       -0.02012636263788
C           -1.01657189826509       -3.28944233971548        0.00293578032532
H            3.53675143658586        1.43435740001128        0.82097664237198
H            3.59390899045207        1.34639085230591       -0.94947276769586
H            2.21364042115432        2.12768726132694       -0.14626906556130
H            3.78265858596855       -1.38777965877823        0.10540500344942
H           -2.26473134544587        0.96890019541034       -0.01894481387059
H           -3.68520275813605        4.20241548340195        0.35677240681845
H           -1.96986737215002        3.62746190405274       -0.07983105963784
H           -0.59840367524126       -3.75639637467291        0.89580694694246
H           -0.62138867910969       -3.77927109713099       -0.88811888938604
H           -2.09848554398307       -3.39967608080704        0.01831863121853
H            1.87409842476011       -3.07429203375167        0.12317520074238
