  25
        -42.09404862
 C          3.0585659468        1.5497237355        0.1179139534
 N          2.2890665144        0.3866298044        0.0866484860
 C          2.5819060311       -2.1834295858       -0.0900344809
 N          1.2967062683       -2.1415701881       -0.0665586724
 C          0.4445675943       -1.0428978124       -0.0196740803
 C          1.0071195489        0.2493681262        0.0116893784
 C          0.0550017720        1.4146348089       -0.0341458730
 O          0.4449089548        2.5569830444       -0.0879172801
 N         -1.2732818798        1.0840751981       -0.0052085375
 C         -2.2563522720        2.1616269142       -0.0309127432
 C         -1.8102643319       -0.1890218424        0.0308387121
 O         -2.9930697025       -0.3851133969        0.0762310477
 N         -0.8946840597       -1.2524250091       -0.0004491725
 C         -1.4596949343       -2.5901332150        0.0053567349
 H          2.4455848616        2.4296500642        0.3433920674
 H          3.8514272673        1.4365096620        0.8617152821
 H          3.5351710970        1.7093429463       -0.8556617191
 H          3.1943009013       -1.2849404210       -0.0873698671
 H         -1.7303889482        3.1127002407       -0.0259636238
 H         -2.8702379243        2.0750110253       -0.9274399336
 H         -2.9062928446        2.0800739874        0.8398225591
 H         -1.1387084902       -3.1480958068        0.8867982361
 H         -1.2099686698       -3.1278666860       -0.9109381595
 H         -2.5443840709       -2.4779747295        0.0497395284
 H          0.8047936565       -3.0438643667       -0.0822798073
