  25
        -42.10291717
 C          3.2298726684        1.1516205661        0.0036400205
 N          2.2857885196        0.0656272095       -0.0045924524
 C          2.5694718278       -1.2322679788       -0.0129718662
 N          1.4300789539       -1.9552549559       -0.0094668101
 C          0.3742219476       -1.0769308529        0.0004985382
 C          0.9187189901        0.2023859462        0.0037102601
 C          0.0983444055        1.3929447946        0.0077640856
 O          0.5029362133        2.5336645045        0.0121100565
 N         -1.2626708761        1.0678185064        0.0041175237
 C         -2.2108800564        2.1776222171       -0.0068113743
 C         -1.8437397799       -0.1700015674       -0.0030513452
 O         -3.0268986718       -0.3546399414       -0.0201695746
 N         -0.9556194880       -1.3269020787        0.0096940502
 C         -1.5181821588       -2.5452869980        0.0255907083
 H          3.8359533391        1.1187778047        0.9093495522
 H          3.8888547227        1.0872130921       -0.8619873481
 H          2.6802587913        2.0920271837       -0.0267129587
 H          3.5569459587       -1.6505021198       -0.0226494042
 H         -1.6426492804        3.1043114436        0.0030694355
 H         -2.8310415123        2.1238435393       -0.9004996311
 H         -2.8565549151        2.1200221935        0.8680721071
 H         -0.9119375020       -3.4293627773        0.0132812028
 H         -2.5905707891       -2.5941647082        0.0339974500
 H         -4.5369413868       -4.5471868243       -0.0855410302
 H          1.3823599561       -2.9635751645       -0.0178931877
