25
 energy: -42.102457300149 gnorm: 0.004094125399 xtb: 6.6.1 (8d0f1dd)
C            2.08044426695973        1.54919130288744       -0.32372314749499
N            1.69372391804212        0.16085071812612       -0.30164324502839
C            2.50797447220531       -0.81236827847176       -0.67865464073523
N            1.93720581641580       -1.99465686091003       -0.46933265939738
C            0.67349026218661       -1.82724509288091        0.11293886247443
C            0.51827927965739       -0.39204457936681        0.19766706993657
C           -0.57555282640392        0.30789046653016        0.79623427928969
O           -1.40282394667086       -0.20076278392528        1.53169444366136
N           -0.65486239963113        1.71626918683686        0.54394605503915
C           -1.13742403800478        2.16910015510918       -0.75471877454779
C           -2.54901190341642        1.90348459993103       -0.90010490749427
O           -3.61010241574608        1.56866338946210       -0.58516115633417
N            0.01959123134854       -2.88941125860644        0.37897276279649
C           -1.24298681969838       -3.09588822397513        0.96422139715051
H            1.59074422599984        2.08148104922469        0.48818711574418
H            3.16001472072873        1.62036443387041       -0.20258302163371
H            1.80983649395274        2.01600411759969       -1.27207583804834
H            3.49045687924054       -0.66155372499237       -1.08364760404785
H           -1.19321839642497        2.13853084496187        1.29894591598771
H           -0.58479773911692        1.67206223426108       -1.56001194449091
H           -0.97061609898630        3.25177670717833       -0.84215140099182
H           -1.13735309661755       -3.90237715549000        1.69440953775256
H           -1.93479377228950       -3.44551546149116        0.19269226646208
H           -1.65749026992635       -2.20812947773624        1.45029524665094
H            2.32970367029754       -2.90747776652820       -0.64522499480150
