25
 energy: -42.125665302554 gnorm: 0.002891997125 xtb: 6.6.1 (8d0f1dd)
C            2.29387788505184       -0.18247851878476        1.31378705092718
N            1.82940647655739       -0.37301860634993       -0.04334855930030
C            2.57173022436711       -1.07977322704370       -0.94384630740475
N            2.39966386628754       -1.22949972019215       -2.17935271865797
C           -0.55694766297489        0.17731722053570       -0.02543301260291
C            0.74109829635619        0.45708460372115       -0.47368726890734
C            1.00953804902626        1.50067329680787       -1.28877617604542
O            1.28106178837241        2.36848559086716       -2.00505511611672
N           -1.76822837014757        0.81937871523283       -0.17869268340896
C           -2.20676801788091        2.10624307865947       -0.61907847049475
C           -2.38834724845717       -0.21840883309807        0.56723972371584
O           -3.48944587594306       -0.47267116543902        0.90701294199119
N           -1.11610353277410       -0.84176993870486        0.72110486024459
C           -0.74711214461298       -2.17397883349206        1.08966752597476
H            2.87833921408485       -1.04491950287277        1.62716527447137
H            2.92269286037511        0.70967831177963        1.39222161054096
H            1.44456773991057       -0.06062838277914        1.98455382623021
H            3.41602917132315       -1.60197362122537       -0.50349005652871
H           -1.72528214325865        2.37127631369107       -1.56077528287967
H           -3.28553828989763        2.05976991965440       -0.76626545506094
H           -1.98797594947945        2.87881685611251        0.12490200033205
H            0.05817470639179       -2.16741931014106        1.82609067269398
H           -0.43250495311885       -2.75634520988276        0.21969741003224
H           -1.62642183260922       -2.64120476694086        1.53178255757334
H            1.64492725712970       -0.78639572851512       -2.68625272943644
