25
 energy: -42.161094445502 gnorm: 0.005143747238 xtb: 6.6.1 (8d0f1dd)
C            3.22747697083048        1.20609029601826       -0.04382514371362
N            2.32629687021757        0.08504689338294       -0.05264512090117
C            2.65316921104379       -1.20681951133335       -0.07529405516698
N            1.53742443946762       -1.96308747086816       -0.04851527426686
C            0.45919842525333       -1.12139091567993       -0.00742859478918
C            0.95425850092965        0.17640511807830       -0.00947420393277
C            0.10572373134873        1.33621194544877        0.03007731003705
O            0.44726951389717        2.50256523407078        0.03798070265450
N           -1.24256820536110        0.94173062518702        0.05314852782581
C           -2.24456792819053        1.99536353978152        0.08382560517017
C           -1.68811987998700       -0.33124409672491        0.03565855287034
O           -3.00418203045042       -0.51577366063308        0.00074183583383
N           -0.87543083485468       -1.43356039251335        0.03494781668741
C           -1.35408997845611       -2.69982494021679        0.00381635694974
H            3.75012075872773        1.26301153108627        0.91217674032701
H            3.96187320375035        1.10939712299912       -0.84225446058450
H            2.64604704038275        2.11762150123073       -0.18117667309705
H            3.65212152963793       -1.59319713992924       -0.10884274390867
H           -1.71250600261235        2.94460113687615        0.08680878188837
H           -2.88658364140216        1.92684104066107       -0.79258419322859
H           -2.85633781996060        1.90359526682865        0.97930827781166
H           -2.34128290870476       -2.92078611214264        0.34463057551068
H           -0.66264829077133       -3.50187102861658       -0.08672373768959
H           -3.20189203849714       -1.43044614848257       -0.26886060210833
H            1.50966087786097       -2.97224129290889       -0.05432466227926
