25
 energy: -42.134215125100 gnorm: 0.008889427193 xtb: 6.6.1 (8d0f1dd)
C            2.89923557816255        1.25051197865942        0.04970874471734
N            2.19128064696076        0.00010162206916        0.02087365791149
C            2.74916893382564       -1.21640100160693       -0.07606512169672
N            1.77450574466485       -2.16595749240337       -0.07283376020306
C            0.56926402721440       -1.53361599318889        0.02997468254208
C            0.82366660229038       -0.16066480076545        0.08989952105890
C           -0.26709826114003        0.77521706192951        0.17455832330654
O           -0.17600863817000        2.01051600076606        0.18686637176541
N           -1.47838221949131        0.12927534740592        0.22052888443192
C           -3.24484876086695        3.57860018819321       -0.07925037825656
C           -1.67499890565569       -1.12345049405685        0.17814141902182
O           -2.52439197595608        2.66462774157095       -0.61080153450133
N           -0.68472692515563       -2.05114869479947        0.07149941707820
C           -0.94778280009579       -3.46843794130209       -0.00541358312111
H            3.60716484619958        1.26448710901391        0.87961353616407
H            3.44799130602227        1.39716428697706       -0.88200348345879
H            2.18009470018099        2.05877224076410        0.17302058637055
H            3.79765515183028       -1.41464912665782       -0.14659398618169
H           -1.58478891575300        2.54011316456890       -0.21199761918352
H           -4.23751185912551        3.72183491172392       -0.48563456292301
H           -2.90877387315607        4.20697230507983        0.74010340087440
H           -0.44343661077178       -3.99883349881528        0.80464420320564
H           -0.61759902479076       -3.87056244445868       -0.96577496335992
H           -2.02144241417175       -3.61690244611372        0.08835261140790
H            1.93219516087287       -3.15933148278158       -0.14024474943528
