25
 energy: 0.000000000000 xtb: 6.6.1 (8d0f1dd)
C            3.23720163006194        1.16630919979326        0.08434469647475
N            2.29877817382611        0.07527477071623        0.03981603040599
C            2.58028210190900       -1.21425402444508        0.03006176031096
N            1.43813958087363       -1.93419271955128        0.00098261760884
C            0.39035688448383       -1.05887472636071       -0.00790371836672
C            0.93510056364412        0.21347819449412        0.01709077491437
C            0.09450143893243        1.40504303904423       -0.00410947031874
O            0.49712751527797        2.54126714362870       -0.00342325688240
N           -1.25076640035757        1.06271879480407       -0.03085478223738
C           -2.21907211982101        2.15522099834493       -0.05001256985998
C           -1.81739487048744       -0.20012725993278       -0.04692818574614
O           -2.99983886758376       -0.37846417018721       -0.07008878229737
N           -0.92618586207120       -1.30210215599479       -0.03682761578324
C           -1.46982264913417       -2.64643102187190       -0.06029820460571
H            3.71247264356769        1.21471455160235        1.06488849150277
H            4.00791497605742        1.03430808813993       -0.67357694370751
H            2.69910007168542        2.09770118228144       -0.09130154882931
H            3.56654120610678       -1.63682992603973        0.04233140067262
H           -1.67107961066214        3.09322851271934       -0.02552706933167
H           -2.82428953597071        2.09428624779827       -0.95318082946668
H           -2.87644029173232        2.07745725625962        0.81450067533302
H           -1.17061996399332       -3.19584890659852        0.83242232437030
H           -1.14560257411436       -3.17511610292205       -0.95688275822323
H           -2.55549792440841       -2.55659984320617       -0.07459039797972
H            1.38130855184625       -2.94313852034425       -0.01389874181052
25
 energy: -2.527783873221 xtb: 6.6.1 (8d0f1dd)
C            3.23507844442041        1.17929576340339        0.08625444703889
N            2.29868860492657        0.08997037193544        0.03771631871966
C            2.59245389751716       -1.24202064829695        0.03031156616569
N            1.43865405407021       -1.99024802729016        0.00024863640994
C            0.40241521992867       -1.07889004490801       -0.00842695618163
C            0.92380856073939        0.21344947028979        0.01506914649776
C            0.09738233030095        1.39978478751512       -0.00480410148998
O            0.49405305851201        2.56670254037437       -0.00359432002243
N           -1.26570167888166        1.06349853452514       -0.03091694853216
C           -2.23041145669590        2.16105998433006       -0.05003030526515
C           -1.82254787585519       -0.19012577002662       -0.04717480694871
O           -3.01950202184934       -0.37083969430938       -0.07050489136099
N           -0.93282331911206       -1.29619975023017       -0.03688057367191
C           -1.47027405100824       -2.63225574073034       -0.05985845241636
H            3.71686032851687        1.22939560784441        1.06680153137515
H            4.00562067705043        1.04646098122322       -0.67486765469363
H            2.70085382192948        2.11263312418857       -0.08922069209289
H            3.57436823583487       -1.64917140106276        0.04345666712723
H           -1.67870768944810        3.09868297344830       -0.02542867386123
H           -2.83861704584966        2.10845658389466       -0.95309405424383
H           -2.89146132987768        2.09161220015730        0.81375671358628
H           -1.15559253229224       -3.17520711475941        0.83267228401927
H           -1.13109274979658       -3.15447855849684       -0.95585320682837
H           -2.55523471164924       -2.54372746531150       -0.07389179973275
H            1.42394389650506       -3.04881010553560       -0.01470597745056
25
 energy: 2.288867088447 xtb: 6.6.1 (8d0f1dd)
C            3.23138080170606        1.18398663849100        0.08746620633890
N            2.29538680158623        0.09565220682735        0.03432789452909
C            2.59654138930165       -1.26248810756519        0.03118556876929
N            1.43744123243660       -2.03857637762479       -0.00004735226535
C            0.41183005088063       -1.10060796519027       -0.00919827077313
C            0.91149509262474        0.20498897529880        0.01260678409827
C            0.09934841692075        1.38464192214701       -0.00545297805177
O            0.48516662981175        2.56434127838939       -0.00361305919186
N           -1.28302053946340        1.06935158635371       -0.03095296433694
C           -2.24177196697839        2.17291339352477       -0.05006980165789
C           -1.82445125676537       -0.17648571740148       -0.04731149567948
O           -3.02577000738592       -0.36430553444582       -0.07092122447941
N           -0.93917403311055       -1.28352256638262       -0.03682231597566
C           -1.47027978066203       -2.61485795987202       -0.05932003338099
H            3.71868100689985        1.24066366506874        1.06711047608314
H            4.00284435533115        1.05883915415428       -0.67608951253913
H            2.69959576456129        2.12016095353494       -0.08600848889235
H            3.57988373175029       -1.65076894408455        0.04512327536091
H           -1.68669536490560        3.10955917192637       -0.02509951647428
H           -2.85310228243831        2.12655440645566       -0.95252221964455
H           -2.90681561770753        2.10948563613768        0.81226862700555
H           -1.14132486643926       -3.15267062888110        0.83224556761866
H           -1.11766809221909       -3.13208139712514       -0.95407908159024
H           -2.55488265226602       -2.53429980737461       -0.07298524570611
H            1.48757585446668       -3.14144538019011       -0.01480694301734
25
 energy: 5.079283246985 xtb: 6.6.1 (8d0f1dd)
C            3.22955051272361        1.18310925564205        0.08761171769267
N            2.29468954326191        0.09435615190640        0.03221625094619
C            2.59501147403012       -1.26889922022837        0.03190621732700
N            1.43553342271486       -2.05272262952764        0.00012485537705
C            0.41416706840756       -1.10889394038812       -0.00958036465907
C            0.90800859650183        0.19911720091140        0.01157591713163
C            0.10045621719654        1.37864301584005       -0.00556800757175
O            0.48158721490334        2.55805182382195       -0.00353833108129
N           -1.29031213287519        1.07555703043746       -0.03096917200073
C           -2.24632995097131        2.18022591743521       -0.05018584722258
C           -1.82561073664854       -0.17055578550997       -0.04737082023021
O           -3.02600318010357       -0.36518074212243       -0.07125895737939
N           -0.94091356132543       -1.27556169125146       -0.03662936090603
C           -1.46962494011944       -2.60805956633346       -0.05894912388394
H            3.71728639631936        1.24209953650993        1.06702912395346
H            4.00102563979216        1.06346283111484       -0.67686052509639
H            2.69696996385767        2.12013368969239       -0.08418976447578
H            3.58206043313622       -1.64932066675075        0.04560066604539
H           -1.69058823039071        3.11623296583034       -0.02485261526937
H           -2.85819984251918        2.13466661024906       -0.95254510846792
H           -2.91248557427704        2.11731993034637        0.81156623985882
H           -1.13568383684363       -3.14356050864846        0.83216700923213
H           -1.11258128643706       -3.12311206903043       -0.95322571802391
H           -2.55440906485002       -2.53427207816776       -0.07239206268280
H            1.51861052245217       -3.17380845960659       -0.01464832246592
25
 energy: 5.806804583832 xtb: 6.6.1 (8d0f1dd)
C            3.22925818467985        1.18181621384783        0.08761029931339
N            2.29537900602998        0.09247255986264        0.03104495181288
C            2.59280578274432       -1.27002285340891        0.03255441217767
N            1.43351138140377       -2.05340076461962        0.00040988192725
C            0.41382235021098       -1.11040161065772       -0.00972213635061
C            0.90809980218133        0.19702554446905        0.01121269321002
C            0.10135069631592        1.37784051301342       -0.00562352368322
O            0.48064096153884        2.55553466079784       -0.00343741321455
N           -1.29203455681996        1.07852336922882       -0.03099745301311
C           -2.24732713822190        2.18247327098971       -0.05027171588431
C           -1.82659106618781       -0.16902982886752       -0.04741378668941
O           -3.02578137312640       -0.36692711913087       -0.07143509861267
N           -0.94128531578311       -1.27200666693905       -0.03642219423488
C           -1.46904748109248       -2.60653874448622       -0.05874536575756
H            3.71634987372765        1.24096366382934        1.06709045781813
H            4.00055142611843        1.06437163742692       -0.67706422802339
H            2.69569136507128        2.11881380461439       -0.08351376579434
H            3.58160044955298       -1.64812221957745        0.04522906082436
H           -1.69204038988071        3.11846976990524       -0.02474300043017
H           -2.85902924991411        2.13655347865977       -0.95275748986756
H           -2.91358502584907        2.11901328073557        0.81139811222388
H           -1.13380940854935       -3.14093240224928        0.83229145834068
H           -1.11093539568070       -3.12049349596530       -0.95299495568224
H           -2.55392200632685       -2.53605992568098       -0.07211726253264
H            1.52854179579330       -3.18090753362560       -0.01454804173036
25
 energy: 5.882207482895 xtb: 6.6.1 (8d0f1dd)
C            3.22933766465722        1.18111387400552        0.08762834388555
N            2.29620605313079        0.09118417905245        0.03025030941748
C            2.59130722302716       -1.27006486590171        0.03335141738123
N            1.43207735703011       -2.05143152793367        0.00071307213783
C            0.41307015290141       -1.11014045173332       -0.00981182277044
C            0.90878492766265        0.19667381165592        0.01102368466446
C            0.10206563640704        1.37822280818255       -0.00573299060603
O            0.48042871869848        2.55521211291797       -0.00337534922859
N           -1.29194773366579        1.07918401736247       -0.03102971425419
C           -2.24716314498654        2.18250076046154       -0.05030545893906
C           -1.82728809481402       -0.16897428659041       -0.04742965125191
O           -3.02584943764722       -0.36765104092952       -0.07149970962783
N           -0.94150592880188       -1.27072797130646       -0.03625203047172
C           -1.46874317510486       -2.60654499156315       -0.05865894329374
H            3.71596300611591        1.24006507098880        1.06721112452988
H            4.00068255780636        1.06444646519138       -0.67694445384592
H            2.69521146929682        2.11788334532821       -0.08333500342571
H            3.58064256485775       -1.64766806153854        0.04446617626628
H           -1.69249869260080        3.11878895983577       -0.02468783982188
H           -2.85882377574633        2.13650351067361       -0.95286051698121
H           -2.91346970012563        2.11883995714134        0.81136334413941
H           -1.13308338175582       -3.14027704600966        0.83240546058357
H           -1.11027918397878       -3.11975935342419       -0.95300445626838
H           -2.55360200015835       -2.53717099601024       -0.07201880827114
H            1.53069158573055       -3.18117967768470       -0.01443228780068
25
 energy: 5.805075776545 xtb: 6.6.1 (8d0f1dd)
C            3.22939332775042        1.18097987017783        0.08768041658396
N            2.29681742228192        0.09055146074471        0.02959837966684
C            2.59064862069993       -1.27016207672466        0.03455354566776
N            1.43137967641604       -2.04983313586753        0.00103255479685
C            0.41258710319819       -1.10962777237050       -0.00991737831856
C            0.90926328588705        0.19714656016186        0.01087411596800
C            0.10259477911852        1.37867547413666       -0.00587530865587
O            0.48038080671969        2.55587247243191       -0.00338459727573
N           -1.29145946746891        1.07875380981708       -0.03106214160436
C           -2.24674496915039        2.18187746850571       -0.05030965819664
C           -1.82764131543436       -0.16926905359262       -0.04742257082563
O           -3.02609276221215       -0.36747882961820       -0.07149619986974
N           -0.94172483061074       -1.27059401538277       -0.03611437503792
C           -1.46863849917949       -2.60689211180703       -0.05864030273043
H            3.71577481705555        1.23981910471966        1.06738316043665
H            4.00102859856849        1.06455450780170       -0.67666449783330
H            2.69497654634630        2.11748049000455       -0.08335629475657
H            3.58001998411606       -1.64781723261886        0.04325196390175
H           -1.69247784458472        3.11845830737539       -0.02465998299620
H           -2.85849176038790        2.13603226887094       -0.95287301477025
H           -2.91313922394991        2.11829973900196        0.81136014500986
H           -1.13284493150216       -3.14034686995121        0.83243025004066
H           -1.11002930137984       -3.11971381061628       -0.95305608159147
H           -2.55345112974319       -2.53750558647357       -0.07201185700598
H            1.53008573538181       -3.18023243655467       -0.01428637445641
25
 energy: 5.800525205128 xtb: 6.6.1 (8d0f1dd)
C            3.22934693084370        1.18109738785316        0.08774959431462
N            2.29696691531904        0.09049142135610        0.02926562477201
C            2.59067111221745       -1.27041524389545        0.03582576450460
N            1.43140299888776       -2.04972245913683        0.00125269290594
C            0.41260767976473       -1.10953944262655       -0.01002616230095
C            0.90927318801374        0.19752772538954        0.01078195878783
C            0.10277985836493        1.37875025090493       -0.00597257913769
O            0.48031360455545        2.55625547361654       -0.00345475707377
N           -1.29136678772522        1.07846730047903       -0.03108932378356
C           -2.24665156908321        2.18170644083040       -0.05031516913021
C           -1.82761608938704       -0.16932679222327       -0.04741649600263
O           -3.02617198747244       -0.36720191093776       -0.07147162080401
N           -0.94179397748121       -1.27076477302758       -0.03606011094597
C           -1.46864389623303       -2.60697065618648       -0.05864490859772
H            3.71563357837456        1.23999356664441        1.06752723817377
H            4.00121148284447        1.06478493834439       -0.67645488144315
H            2.69481761660942        2.11747216707530       -0.08338061627019
H            3.58004846358284       -1.64803063714372        0.04195637215691
H           -1.69236014718893        3.11830693614545       -0.02466394334615
H           -2.85844029398752        2.13593581569726       -0.95286859200557
H           -2.91307382371470        2.11819070787700        0.81135240329286
H           -1.13287022902926       -3.14047977321047        0.83240484433779
H           -1.11002694577340       -3.11979732333779       -0.95305940575550
H           -2.55345213328961       -2.53739331275079       -0.07202619823880
H            1.52960911892369       -3.18030920556482       -0.01417783226315
