25
 energy: 38.597384178621 xtb: 6.6.1 (8d0f1dd)
C            4.78589250952417        0.97969780295761        0.22228406710849
N            2.03582526983040        0.32230197095226       -0.24695835150702
C            2.35273190888881       -0.92785669129718       -0.08977704631408
N            1.25214352254574       -1.72586596475136        0.01488056966511
C            0.17691072792176       -0.89228711676137       -0.00942979215350
C            0.65872069295823        0.40201070159966       -0.09396693427198
C           -0.26647465322241        1.52331922568492       -0.03072779077534
O           -0.04308662974047        2.70846760069790       -0.01568962069591
N           -1.59497199650455        1.03457023925329       -0.05705127005056
C           -2.64674876765520        2.03091798857094       -0.08614252502745
C           -2.06713656508823       -0.25925352264482       -0.06168861031213
O           -3.24494708156941       -0.54070642922852       -0.10343090978415
N           -1.12506521232332       -1.27228153906644        0.01438365492231
C           -1.57279235785450       -2.65295696544674       -0.02105578064908
H            5.34494998396118        1.00104194114688        1.13876921112391
H            5.43750176741082        1.04060484183153       -0.63920986506228
H            3.65838109085170        1.11596642358591        0.11289683232403
H            3.33869055535355       -1.35952180991732       -0.01010288936685
H           -2.19147997112096        3.01671145542577       -0.09661237403639
H           -3.26075125788623        1.89297487428871       -0.97404639070876
H           -3.28562979883143        1.91511202249593        0.78805900044715
H           -1.24193047322673       -3.18198714570742        0.87296750414611
H           -1.21961815210718       -3.16787334402081       -0.91855887705871
H           -2.66241178718753       -2.62963750650236       -0.04752268817053
H            1.22210399808738       -2.72860406988792        0.02111656631742
