25
 energy: -3.520902612186 xtb: 6.6.1 (8d0f1dd)
C            3.42712448920674        1.13311008893345        0.10447189009275
N            2.36545507027867        0.15023920974744        0.04499756171504
C            2.60143776682379       -1.22069946520584        0.04211741549648
N            1.40442733539589       -1.89969504644041        0.00094907177860
C            0.40047232431542       -1.00461925806584       -0.00943622465959
C            0.94152863787336        0.28513729363071        0.01562138979692
C            0.08117102870639        1.41201934975068       -0.01044339154054
O            0.42180672568032        2.59691401829382       -0.00817000911000
N           -1.30252181993662        1.04499343431835       -0.03477432859605
C           -2.27578427108715        2.12361519070186       -0.05402662453458
C           -1.84381407372432       -0.20066568904984       -0.05028295313138
O           -3.04082954743511       -0.40164927740367       -0.07286402707482
N           -0.94355460665054       -1.27464672194134       -0.03911924565010
C           -1.47623375934080       -2.61978132211550       -0.05722484144183
H            3.95515796372703        1.16376666556710        1.06293841434349
H            4.19249016513622        1.00523676692057       -0.67238317897826
H            2.95548743499380        2.09228542941173       -0.01712042098888
H            3.55477658830865       -1.69500165186311        0.03459419097596
H           -1.72826280974740        3.05814827039924       -0.03339781149116
H           -2.88579863990231        2.06312334711040       -0.95601225476937
H           -2.93378029294291        2.05003080822441        0.81218586069729
H           -1.17850461209463       -3.17282738556262        0.83627022770337
H           -1.15489790511789       -3.16040325535202       -0.94968575870712
H           -2.56492914481249       -2.53003880571759       -0.07218602518927
H            1.33023649646225       -2.90696619749541       -0.01408438483132
