25
 energy: 42.708131208808 xtb: 6.6.1 (8d0f1dd)
C            4.48404597967334        0.93599823682644        0.16521378017877
N            2.18060635938168        0.26547040660923       -0.19746989035230
C            2.43895916735944       -0.99396674980210       -0.05959202307914
N            1.30678573654912       -1.75548240481624       -0.00211070891804
C            0.26440296657673       -0.88246882750257       -0.01720900748052
C            0.79130703214291        0.39914165559065       -0.06678195558541
C           -0.14435931569020        1.50930406462660       -0.03744667548185
O            0.09947100978153        2.68695985503955       -0.02349809111340
N           -1.49053931206299        1.03549799319824       -0.05263036938782
C           -2.52344077365121        2.05515045945903       -0.07721873092278
C           -1.98748621093549       -0.24320527751422       -0.06183207725494
O           -3.16770478257795       -0.50998182974764       -0.09400253294765
N           -1.04905469862909       -1.25095389008413       -0.00965039234799
C           -1.52880178291825       -2.62338085974500       -0.02275346040018
H            4.97090114460107        0.80318900626300        1.08063368157074
H            5.08540765406759        0.91919200079578       -0.70285193898254
H            3.66246167444677        1.55296020172847        0.18254570196928
H            3.40250878271034       -1.46958866555324       -0.00772376818635
H           -2.03254339854720        3.01742636244373       -0.08198214926631
H           -3.14162546351101        1.95627180648079       -0.96898798456163
H           -3.17096957461163        1.96859474457869        0.79565688327988
H           -1.22599401289609       -3.14579009247426        0.88172073981775
H           -1.18743517312395       -3.15372666038654       -0.91308855048202
H           -2.61964651014510       -2.57745728945634       -0.04765542763311
H            1.21496971516609       -2.76478428410296       -0.01373389265120
