  25
        -42.09808185
 C          3.1000964278        1.3327482224        0.0415466152
 N          2.3057630398        0.1097272491        0.0006445327
 C          2.9363096533       -1.0146608611       -0.0216675178
 N          1.0553695364       -2.2552290037       -0.0125628400
 C          0.3409789590       -1.1872916960       -0.0020378322
 C          0.9378153015        0.1254223602        0.0046170838
 C          0.1055708580        1.3119556546       -0.0084374435
 O          0.5217119741        2.4547612366       -0.0300965559
 N         -1.2572643434        1.0519023910        0.0013880477
 C         -2.1731691608        2.1793123180       -0.0024224973
 C         -1.8604339142       -0.1939182222        0.0082123999
 O         -3.0554601444       -0.3196202468        0.0156572467
 N         -1.0130595990       -1.2957687262        0.0032562425
 C         -1.5904741708       -2.6255997213       -0.0019664365
 H          3.5522254608        1.4409751608        1.0283154617
 H          3.8918944548        1.2887086099       -0.7046225448
 H          2.4594461063        2.1962353054       -0.1468124762
 H          3.9943999489       -1.1860002862       -0.0111389642
 H         -1.5922942641        3.0989606768        0.0087545303
 H         -2.8041726409        2.1397880265       -0.8917978335
 H         -2.8230792660        2.1276196521        0.8723815570
 H         -1.2523843054       -3.1757547808        0.8771241750
 H         -1.2622194154       -3.1643988735       -0.8918048739
 H         -2.6745107902       -2.5314210392        0.0045194665
 H          2.1619148603       -2.0647212020       -0.0272713852
