72
 energy: -99.254414751485 gnorm: 0.001936959116 xtb: 6.6.1 (8d0f1dd)
N           -1.83829695568889        2.94240091824149        2.26466089631437
C           -1.83257241820375        2.17047374801969        1.28278872439852
C           -2.99913709523723        1.93475132129555        0.37186870115294
C           -3.47005898550560        0.49437225503973        0.46753352763578
C           -4.37625432681612        0.02584270246700       -0.45975895749267
C           -4.86118990620932       -1.26144166228604       -0.42175338548817
O           -5.74741385304133       -1.75114963296154       -1.33384173803473
C           -6.31194197348453       -0.95044474881667       -2.19890242299267
C           -4.43014006013162       -2.16226668352526        0.59496130065481
O           -4.95913000925838       -3.39982571293892        0.54866242204798
C           -4.64555704089948       -4.32062416413487        1.56991456136331
C           -3.52399993017688       -1.68403845291275        1.53184919043602
C           -3.05415897366599       -0.37814327000239        1.47273702121193
C           -2.50036484860449        2.19813135535880       -1.07162130360122
C           -1.55758424092968        1.11736178786078       -1.62872769143209
C           -0.21347915477528        1.11791113618056       -1.01164727347648
N            0.46317204026358        0.03652523567515       -0.64318037476679
C            1.84968479973035        0.13419013606906       -0.25197902354293
C            2.79643042742305       -0.30817883407265       -1.38421625175546
C            4.22495632644096       -0.12202339544109       -0.95541955444219
C            4.87186711685975        1.08528887325221       -1.16181078073062
C            6.17966313583390        1.27079566221008       -0.74100248199717
C            6.86653805021957        0.25069434392269       -0.09874738289663
O            8.13386706458286        0.31855544931515        0.35000514135422
C            8.86889113883462        1.50487150167658        0.15513798254908
C            6.20965820106723       -0.99152484121501        0.12061378304439
O            6.94947540510898       -1.92886005128702        0.74674291990837
C            6.39490374219774       -3.20107138189502        0.98062573915810
C            4.90140674644528       -1.15279585773247       -0.30729871423828
C           -0.12180828759126       -1.28220529117115       -0.68561489261808
C           -4.23167043536958        2.83596121307553        0.67519302768783
C           -4.79312420707057        2.56452237074960        2.06872662486911
C           -3.94244413328277        4.32514736992317        0.51731966127386
H           -4.11471174462295       -0.58680028255893       -3.96984929651685
H           -6.24548176149290        0.12016143489075       -2.07651962043631
H           -7.00943478272319       -1.41645425427937       -2.87155574455085
H           -4.80143223010773       -0.69214465231499       -3.56470940680459
H           -4.93139375673906       -3.93819734441371        2.55367949110107
H           -5.22607853101811       -5.21313233988369        1.34529705865146
H           -3.58021814408267       -4.57058191515309        1.56838438728361
H           -3.18274656643502       -2.32350151747310        2.33035487744237
H           -2.37064153454593       -0.03202387287383        2.23461262781569
H           -3.37463440265985        2.23697421557364       -1.72051684510146
H           -2.00028224605812        3.16608207897889       -1.10656411833604
H           -2.04072975386112        0.14498713628250       -1.55019914873885
H           -1.42629386671255        1.33802790154440       -2.69621931083188
H           -0.93932636859294        1.60662128359732        0.95180618202172
H            0.32407709228452        2.05441142938935       -0.98657197646511
H            2.01993538954266       -0.49102389654156        0.62888920923372
H            2.07823999456394        1.16810754486457        0.01444538057275
H            2.59109977120110        0.29669879812131       -2.26904109285992
H            2.61037439433229       -1.35438919141702       -1.62965893914518
H            4.36262464020955        1.89205987578877       -1.66675501421227
H            6.65912902906929        2.21840397752017       -0.92336394644939
H            8.40324369258358        2.35341619416189        0.66562017796483
H            8.98245396882731        1.73505431903072       -0.90844066987303
H            9.84843559135985        1.31600181305639        0.59002914143348
H            7.17989676952411       -3.77724208295734        1.46643198667689
H            5.52589610753110       -3.14431955340468        1.64421339646828
H            6.11096885804746       -3.69366605832451        0.04546765496759
H            4.39658273737540       -2.09353572253457       -0.15227851442811
H           -0.29024625011918       -1.60710187368468       -1.71453303556432
H           -1.07645069871745       -1.29349549960318       -0.15443333056007
H            0.55030624398277       -1.98798565422952       -0.20428670403524
H           -4.99407756531757        2.54723955407763       -0.05916536454811
H           -4.07136010103064        2.85761126475784        2.82439139551239
H           -5.03285143967913        1.51186938716874        2.19747294366076
H           -5.70208894549772        3.14173755242949        2.21461711826547
H           -3.14085428217229        4.62531055475231        1.18579254824337
H           -3.67431242780995        4.58091226300932       -0.50431121344443
H           -4.83266405236357        4.89159584306364        0.77941601865434
H           -0.97862459015105        3.04324741213879        2.79549754397988
