  72
        -99.26350396
 N         -1.9017537939        2.5687825958        2.3555120754
 C         -1.7504178455        2.0821495244        1.2134057476
 C         -2.8763365572        1.9265196602        0.2015500600
 C         -3.4363391219        0.5070053394        0.2890974844
 C         -4.5012784503        0.1698692255       -0.5483002581
 C         -5.0545137961       -1.0988732499       -0.5330157896
 O         -6.0777128922       -1.5131946675       -1.3093497516
 C         -6.6833910806       -0.5994299170       -2.1930465321
 C         -4.5343363091       -2.0750143160        0.3584098243
 O         -5.1306953365       -3.2849402185        0.3089953306
 C         -4.7237600143       -4.2827540312        1.2159504374
 C         -3.4858366541       -1.7261156737        1.1934502176
 C         -2.9401361714       -0.4476813456        1.1577374660
 C         -2.2929301725        2.1819394052       -1.2097082738
 C         -1.3792902418        1.0626036681       -1.7362530666
 C         -0.0462958715        1.0213830816       -1.0922987877
 N          0.5855015106       -0.0880211404       -0.7084713874
 C          1.9752269586       -0.0349222742       -0.3229416129
 C          2.9114399978       -0.4122434753       -1.4880747442
 C          4.3418364906       -0.2931517660       -1.0442981706
 C          5.0192002358        0.9090401168       -1.1572495807
 C          6.3261260247        1.0314338245       -0.7103212542
 C          6.9796401076       -0.0481960074       -0.1352328249
 O          8.2428672138       -0.0427628715        0.3338780198
 C          9.0092847635        1.1340894048        0.2233736503
 C          6.2919362332       -1.2861309102       -0.0138117498
 O          7.0012923686       -2.2847374482        0.5526692923
 C          6.4120686351       -3.5557509514        0.6847677373
 C          4.9863563580       -1.3845785957       -0.4662577766
 C         -0.0210094661       -1.3918776119       -0.8223575369
 C         -3.9611246235        2.9072438844        0.4833446198
 C         -4.7047020940        2.8604977137        1.7404023842
 C         -4.4885878719        6.1596938696        2.7081496460
 H         -4.9047142682        0.9249594860       -1.2032117062
 H         -7.1049198565        0.2576282796       -1.6591013356
 H         -7.4859723071       -1.1517045125       -2.6781369823
 H         -5.9777600462       -0.2468851917       -2.9525792896
 H         -4.8605751867       -3.9613900700        2.2526153040
 H         -5.3651717470       -5.1386830444        1.0161735513
 H         -3.6790118560       -4.5693461366        1.0563632130
 H         -3.0834308656       -2.4423364239        1.8912551280
 H         -2.1366716333       -0.2080052244        1.8370815223
 H         -3.1251442488        2.2837906937       -1.9064348486
 H         -1.7518196019        3.1311047441       -1.2014854363
 H         -1.8972593591        0.1091698744       -1.6484454002
 H         -1.2241460198        1.2575947994       -2.8065302724
 H         -0.7892432589        1.7246974529        0.8039915050
 H          0.5252515897        1.9363781703       -1.0603127243
 H          2.1422771444       -0.7199373010        0.5126509237
 H          2.2192923835        0.9755991902        0.0114738927
 H          2.7199381840        0.2626630790       -2.3242547490
 H          2.6995430204       -1.4322230280       -1.8110826567
 H          4.5352610911        1.7623330529       -1.6078379078
 H          6.8297424446        1.9779617750       -0.8181531823
 H          8.5659049425        1.9565256939        0.7933659002
 H          9.1304363034        1.4365711756       -0.8211279042
 H          9.9828935596        0.8887529643        0.6432247027
 H          7.1718638215       -4.1836468510        1.1459418335
 H          5.5290875972       -3.5244644606        1.3314814103
 H          6.1387076735       -3.9748734748       -0.2886838486
 H          4.4571752669       -2.3212713702       -0.3861294789
 H         -0.1620353986       -1.6742016103       -1.8682385488
 H         -0.9919778336       -1.4068920671       -0.3222323735
 H          0.6237467085       -2.1275018148       -0.3483573105
 H         -4.0607764467        3.7612135239       -0.1668891014
 H         -4.0039357242        3.0879433605        2.5579575132
 H         -5.0791773413        1.8573196655        1.9517939278
 H         -5.5180844906        3.5804481396        1.7609179675
 H         -3.8017074212        5.7246756628        3.4000432845
 H         -4.1303061597        6.5592582434        1.7839668042
 H         -5.5191084703        6.2705387790        2.9723494248
 H         -1.0823294361        2.6354764681        2.9494892483
