72
 energy: -99.699655349924 xtb: 6.6.1 (8d0f1dd)
N           -1.66413679222310        3.02446533320977        2.29233862529517
C           -1.62985396583898        2.21267909228588        1.32964015528530
C           -2.73935043789107        2.07031868989531        0.31755157666568
C           -3.28287850701649        0.64688664763401        0.33875707896511
C           -4.16675680355761        0.19722758703853       -0.65135872475089
C           -4.78405414604287       -1.04406645220548       -0.61008771151003
O           -5.77345252673846       -1.49771267557055       -1.47215713366869
C           -6.56880943178465       -0.71410047578457       -2.37991818789548
C           -4.36205693121710       -1.94478116285984        0.41324065969741
O           -4.86101744949395       -3.21434734036030        0.36337643712273
C           -4.63187274475355       -4.08901354425745        1.44167774497055
C           -3.49756681897345       -1.49677183868307        1.40391464717440
C           -2.98729067542782       -0.20595341080735        1.38588962841941
C           -2.09885401810517        2.38988403461618       -1.05937335041685
C           -1.19017071948681        1.28677922836405       -1.63879939157095
C            0.09934063646609        1.16042441844472       -0.91902907850638
N            0.66141900221382       -0.03420202932038       -0.51698555854050
C            2.04280188824985       -0.07468643957098       -0.14313610347761
C            2.98304199488310       -0.55144720069970       -1.27673262986464
C            4.41399518361769       -0.45460243266104       -0.84485869125772
C            5.13931005031496        0.70462350850570       -1.05266922529672
C            6.45706603121431        0.80717117340853       -0.63006893811184
C            7.07122000450046       -0.25013264031551        0.01711018880716
O            8.35796464967837       -0.26386765153913        0.46971597974071
C            9.15380285866704        0.87376987337885        0.26238364253627
C            6.33736420043359       -1.43603817950258        0.24662084661444
O            7.02316450716539       -2.42324134285871        0.89023489969463
C            6.38021577165803       -3.64782774438646        1.12847427105420
C            5.02577218987759       -1.51973326657334       -0.18135438651712
C           -0.01767793546040       -1.28560979366539       -0.71548425273045
C           -3.93566673809686        3.03345765997408        0.57554474582192
C           -4.61134795436492        2.74549713671752        1.91554900367056
C           -3.55092415033117        4.51090583207610        0.50900376227190
H           -4.39882723407250        0.86252811620437       -1.46742954524105
H           -6.02655046596370        0.18896170917535       -2.64814550803151
H           -7.68986316418582       -0.36370373805072       -2.17292472276654
H           -6.65598571134357       -1.37780057013513       -3.25428540878877
H           -5.01200396447563       -3.68247628945031        2.38491210065969
H           -5.18489885915841       -4.99557166548683        1.19688360103376
H           -3.57228611110452       -4.34488868190290        1.56086988697417
H           -3.22298083253402       -2.13661848241129        2.23145097260511
H           -2.36307248024477        0.12844540980331        2.20250201605096
H           -2.89778184230461        2.59226435361301       -1.77602389433817
H           -1.50632735708530        3.30087646153848       -0.96091974114037
H           -1.72801174792090        0.33917203439528       -1.64960121151911
H           -1.00302352628995        1.57032902932790       -2.68771619786776
H           -0.75805021434582        1.58993087113519        1.08406333280482
H            0.73877261419654        2.02226149335567       -0.84678537920431
H            2.15759974249829       -0.74368450521471        0.71773500301999
H            2.35125279368650        0.92642074806626        0.16595701262728
H            2.81160718071154        0.08009553282739       -2.14954749762093
H            2.73316041599332       -1.58095931710527       -1.53731128679802
H            4.68236246752050        1.54041586000519       -1.56096477810363
H            6.99780520738849        1.72088676235430       -0.81957197921580
H            8.73830394975711        1.75564695934307        0.76172531271519
H            9.28558375576510        1.08985578304712       -0.80368218660274
H           10.12141257767168        0.63557048803023        0.70191415248678
H            7.12191970420260       -4.27417121748679        1.62221958765635
H            5.51316861576999       -3.52973842989187        1.78766460437177
H            6.06485768625751       -4.13026525604619        0.19667421018745
H            4.45812501664397       -2.42285431987213       -0.01675606044935
H           -0.12879179527332       -1.54860917509902       -1.77574864767425
H           -1.01154953149706       -1.24532827499515       -0.26274480741384
H            0.55028981207336       -2.07423798520296       -0.22429439535350
H           -4.66799544666340        2.83805443322007       -0.21783674767970
H           -3.91990139778935        2.94759531914130        2.72639378542352
H           -4.93532932755513        1.70914707143257        1.97504654675544
H           -5.48323299871888        3.38547831997319        2.03293234827345
H           -2.78639614049163        4.72881298425210        1.24723628988115
H           -3.18792373437213        4.78913144087765       -0.47684133468285
H           -4.42543789053922        5.12016775288712        0.72784647035621
H           -0.83066494778569        3.04790076811331        2.87750562254158
