25
 energy: 0.000000000000 xtb: 6.6.1 (8d0f1dd)
C            3.23720132972391        1.16630909158653        0.08434468864950
N            2.29877796055224        0.07527476373246        0.03981602671198
C            2.58028186251803       -1.21425391179017        0.03006175752192
N            1.43813944744728       -1.93419254010258        0.00098261751768
C            0.39035684826767       -1.05887462812143       -0.00790371763344
C            0.93510047688824        0.21347817468824        0.01709077332874
C            0.09450143016486        1.40504290868848       -0.00410946993748
O            0.49712746915594        2.54126690785742       -0.00342325656480
N           -1.25076628431515        1.06271869620815       -0.03085477937476
C           -2.21907191394203        2.15522079838987       -0.05001256521996
C           -1.81739470187490       -0.20012724136556       -0.04692818139228
O           -2.99983858926755       -0.37846413507442       -0.07008877579474
N           -0.92618577614240       -1.30210203518959       -0.03682761236648
C           -1.46982251276835       -2.64643077634382       -0.06029819901142
H            3.71247229913541        1.21471443890471        1.06488839270555
H            4.00791460421487        1.03430799217987       -0.67357688121503
H            2.69909982127087        2.09770098766290       -0.09130154035862
H            3.56654087521359       -1.63682977417947        0.04233139674524
H           -1.67107945562430        3.09322822573871       -0.02552706696334
H           -2.82428927394145        2.09428605349656       -0.95318074103337
H           -2.87644002486466        2.07745706351925        0.81450059976605
H           -1.17061985538665       -3.19584861009707        0.83242224714061
H           -1.14560246782873       -3.17511580834413       -0.95688266944647
H           -2.55549768731684       -2.55659960601237       -0.07459039105944
H            1.38130842369251       -2.94313824728853       -0.01389874052104
25
 energy: -0.092857149673 xtb: 6.6.1 (8d0f1dd)
C            3.23315774175281        1.17995305276105        0.08932740480389
N            2.29482145825545        0.08964594155210        0.04354986821569
C            2.58821166337039       -1.24355053152822        0.03406965978067
N            1.44162996512531       -2.00694988256682       -0.00707911811590
C            0.40381927108349       -1.08505059754245       -0.00384764011357
C            0.92122312511103        0.21238295502521        0.02083434420349
C            0.09555102041902        1.40281134942574       -0.00254985554829
O            0.49143548952921        2.57023103077910       -0.00529144238468
N           -1.26723674759727        1.06823928275260       -0.02931094485007
C           -2.23339030874056        2.16542419383849       -0.05427342270909
C           -1.82202972700635       -0.18623736207662       -0.04248224982830
O           -3.01892468161143       -0.36652054515176       -0.06682619831330
N           -0.93263410369340       -1.29411258652800       -0.03170854053829
C           -1.46983017506876       -2.62879047922246       -0.05446468589625
H            3.71417208729756        1.23403416437865        1.07008317432175
H            4.00602395644934        1.04359799298201       -0.66912626786646
H            2.70444809831372        2.11589109090833       -0.09125648125786
H            3.57096550602960       -1.64404269241379        0.04612405097587
H           -1.68496196991213        3.10522824898358       -0.03308712957398
H           -2.84076609189044        2.10782641981266       -0.95764059031249
H           -2.89600421533171        2.09848315029999        0.80861018780069
H           -1.15055634067813       -3.17097542950188        0.83679703331440
H           -1.12975976804321       -3.14816190809636       -0.95146963964434
H           -2.55471528712428       -2.54187342549435       -0.06605343192812
H            1.44756433893321       -3.08845464463278       -0.05589417234090
25
 energy: 11.994442549693 xtb: 6.6.1 (8d0f1dd)
C            3.22827953763889        1.18536776625923        0.09442733107789
N            2.28758005875561        0.09645076045458        0.04652767091903
C            2.58746354508764       -1.26594030521512        0.03720325643100
N            1.44218657936743       -2.07665272063393       -0.01509517379878
C            0.41500434105759       -1.11348128612891       -0.00403654251011
C            0.90504602731367        0.20208469678869        0.02532504808641
C            0.09526606725646        1.39003569344267        0.00108766868097
O            0.47967546534754        2.57101210618979       -0.00638922571795
N           -1.28776795865563        1.08088499533210       -0.02691903141150
C           -2.24945249866112        2.18300537196839       -0.05922187619624
C           -1.82423454986897       -0.16599645478800       -0.03812205987313
O           -3.02594796409977       -0.35433893545671       -0.06180634990407
N           -0.93990827209872       -1.27591390120945       -0.02726232146638
C           -1.46944653770534       -2.60546574626167       -0.04747890434389
H            3.71176751429304        1.25125198817073        1.07568883456214
H            4.00506968023978        1.05099775803407       -0.66268738093818
H            2.70788647953078        2.12664972495580       -0.09133162835698
H            3.57409555637667       -1.63821925647158        0.05043535183769
H           -1.70137157549282        3.12422505119173       -0.04205557591086
H           -2.85840828983634        2.12439433714977       -0.96273132614475
H           -2.91776103415933        2.12470816505364        0.80121015016326
H           -1.12837449666389       -3.14203420607276        0.84051489927385
H           -1.11555197714412       -3.11747058460551       -0.94442317923044
H           -2.55393851787751       -2.53093381024809       -0.05447722771975
H            1.54505712497090       -3.23559241915544       -0.10134849531465
25
 energy: 21.556142377088 xtb: 6.6.1 (8d0f1dd)
C            3.22642735694953        1.18535190090475        0.09657915809652
N            2.28588939430674        0.09642009663371        0.04456650782122
C            2.58362776097851       -1.27499585344297        0.03574067908328
N            1.43984781000618       -2.10370673746445       -0.01763847843867
C            0.41856033389974       -1.12398714156990       -0.01110536945756
C            0.89973790286712        0.19549113992826        0.02393102433377
C            0.09514885511390        1.38509732504810        0.00229851062020
O            0.47422382779171        2.56605819937266       -0.00494361364347
N           -1.29806901906299        1.09241933076091       -0.02554685896682
C           -2.25832369238796        2.19440838702581       -0.06078811584555
C           -1.82632694424244       -0.15509032654959       -0.03641519961708
O           -3.02728114299552       -0.35250003108016       -0.05777598880778
N           -0.94235044854715       -1.26193079401820       -0.02726641259731
C           -1.46786022836447       -2.59346112852286       -0.04485984445712
H            3.70615569413205        1.25680379927441        1.07965481898340
H            4.00613339334831        1.05391735925120       -0.65783105250934
H            2.70831567475256        2.12880753086362       -0.09175570882183
H            3.57621914576092       -1.63312465541097        0.05280573285687
H           -1.71226983099178        3.13652472216648       -0.04567300945994
H           -2.86762947172941        2.13262128612986       -0.96428843512584
H           -2.92859684925337        2.13774902278468        0.79852246934481
H           -1.11493276698508       -3.12635923679587        0.84090965956448
H           -1.10950770700013       -3.10165105483909       -0.94232876057400
H           -2.55258707984351       -2.52987476363314       -0.04756435143580
H            1.59766233646906       -3.31595958807319       -0.11219344875188
25
 energy: 28.055893925186 xtb: 6.6.1 (8d0f1dd)
C            3.22700438768887        1.18542459761133        0.09677901236887
N            2.28685472408606        0.09657088696442        0.04325880919925
C            2.57902915611617       -1.27678740415942        0.03604830315571
N            1.43513652249463       -2.10781509758592       -0.01501147073949
C            0.41774322248649       -1.12352666578006       -0.01512341983169
C            0.89934852674737        0.19461501843894        0.02311970180435
C            0.09515285947193        1.38612315012125        0.00263640061860
O            0.47123835186746        2.56480229063153       -0.00491917351037
N           -1.30172295375532        1.09921817759621       -0.02480531740140
C           -2.26169833604905        2.19894005380614       -0.06106156645888
C           -1.82862945031108       -0.15062439165722       -0.03550353350813
O           -3.02793926851154       -0.35346782302001       -0.05627722616123
N           -0.94351659335175       -1.25305327181265       -0.02678555617395
C           -1.46643803999558       -2.58863018163851       -0.04425170489666
H            3.70388540315162        1.25866903441394        1.08090121103448
H            4.00760280642677        1.05471854190550       -0.65614138963387
H            2.70922574672525        2.12952067096876       -0.09289017454968
H            3.57466514946252       -1.62924412235160        0.05440321895459
H           -1.71713142224024        3.14144193930516       -0.04647231719967
H           -2.87074728979820        2.13465963264269       -0.96469254267019
H           -2.93186606727863        2.14116886011383        0.79826259621220
H           -1.10984086508472       -3.11954901885789        0.84060552674476
H           -1.10632170701039       -3.09499901285852       -0.94186397424483
H           -2.55114367409767       -2.53127282540732       -0.04591155865309
H            1.62232311573155       -3.36787425064653       -0.11726994226514
25
 energy: 37.603678216506 xtb: 6.6.1 (8d0f1dd)
C            3.22920253861569        1.18800103421525        0.09356698521133
N            2.28960424745023        0.09964387710008        0.04237066652815
C            2.56601983640531       -1.27523736325650        0.04828250794390
N            1.42129008386546       -2.10109919329858        0.00890153170871
C            0.41249673470367       -1.11421019589872       -0.02312106602122
C            0.90035184979803        0.19849279359159        0.02461898439566
C            0.09454287437170        1.39338493199006        0.00629875587151
O            0.46408247576514        2.56698061955152       -0.00914226906427
N           -1.30641101536020        1.11152607353717       -0.02200152542727
C           -2.26618985461011        2.20548959023747       -0.06081010123699
C           -1.83441155502277       -0.14361927721671       -0.03401673785805
O           -3.03005999371394       -0.35396527850093       -0.05426666696629
N           -0.94663066835015       -1.23484145638639       -0.02678702739389
C           -1.46372090421137       -2.58042855529654       -0.04465500270761
H            3.70156577811751        1.26300504004355        1.07923316953856
H            4.01056933181935        1.05627550461982       -0.65676560405486
H            2.71236638764113        2.13327487237291       -0.09788636416879
H            3.56692104870367       -1.61903387041063        0.05796854466398
H           -1.72512167728684        3.14913960491821       -0.04642168509196
H           -2.87439447601025        2.13734235842564       -0.96489314132028
H           -2.93634624701701        2.14512694013482        0.79846559429946
H           -1.10247270409302       -3.10676033226117        0.83927623963617
H           -1.09938175681341       -3.08344810981896       -0.94175535995512
H           -2.54816145431259       -2.53315919620673       -0.04609627227899
H            1.67650342451722       -3.51285162344219       -0.14333024405731
25
 energy: 29.807526535716 xtb: 6.6.1 (8d0f1dd)
C            3.23357270334738        1.19380686958013        0.08891511728336
N            2.28968131484393        0.11144084496057        0.03975908591473
C            2.52463601871998       -1.25936725159066        0.06945928368324
N            1.38616476192357       -2.06230037399845        0.06946345620468
C            0.39971735438027       -1.08018888090955       -0.03615328106339
C            0.90013149554134        0.21847422334650        0.02650360184592
C            0.09353711903343        1.41444755326976        0.01191139869626
O            0.44714436039941        2.57356316575221       -0.01636362988290
N           -1.31226410838338        1.13735266288485       -0.01861970799728
C           -2.27182551297621        2.21724068827936       -0.06176829122019
C           -1.84183576432816       -0.13213748058169       -0.03238414297352
O           -3.03011268467460       -0.35342243484218       -0.05198659140995
N           -0.95209426977991       -1.19583218719355       -0.02478234454143
C           -1.45947534051447       -2.56543302045241       -0.04298698084016
H            3.69788670919230        1.26641625061882        1.07711863247711
H            4.01365979877894        1.05817036063566       -0.65762942524520
H            2.71925812909507        2.14241474347272       -0.10225981844540
H            3.53904703666249       -1.59544704710084        0.05898972668408
H           -1.73446270741689        3.16083412649711       -0.04811409311987
H           -2.87835094035683        2.14115162185615       -0.96651778851919
H           -2.94101525772800        2.15135224887419        0.79786186840395
H           -1.09216663462343       -3.08809233426064        0.83678872896635
H           -1.09002261836430       -3.06698280290644       -0.93705704263029
H           -2.54372870711278       -2.53496549089224       -0.04418287065092
H            1.81513204931331       -3.86346726655536       -0.20893097942542
25
 energy: 25.048432349948 xtb: 6.6.1 (8d0f1dd)
C            3.23731359819965        1.19727264612434        0.08848788768355
N            2.28524347967331        0.11951991129652        0.03847031935712
C            2.46276089043395       -1.21894483166747        0.07597777599262
N            1.34501453052007       -1.93972532635357        0.11819476743061
C            0.38195593374130       -1.01122890764897       -0.03522515523879
C            0.90603292680053        0.25999495641306        0.02222915675202
C            0.08989210102565        1.44921951914829        0.00694607483849
O            0.43373864939605        2.58284808798736       -0.01806962432855
N           -1.30295868179594        1.15589158507125       -0.01909544369517
C           -2.26928871310423        2.22061886947683       -0.06301082188864
C           -1.84299065820135       -0.13660402686278       -0.03144489148681
O           -3.02473732372902       -0.34819564163623       -0.05221846178084
N           -0.95203343627904       -1.16710108801742       -0.01436357073502
C           -1.45623094788404       -2.56118129813991       -0.03975567632949
H            3.69670750769217        1.26364612378187        1.07628335161928
H            4.01243728134747        1.05639589221255       -0.65689755900943
H            2.72391918681348        2.14735165281450       -0.10172408242976
H            3.49374168447631       -1.57936651310304        0.06093210506894
H           -1.73709948095484        3.16534302169297       -0.05044725813791
H           -2.87634045984019        2.14062923301327       -0.96706649142654
H           -2.93881263729306        2.15196791131476        0.79627559243409
H           -1.08890193052294       -3.08402946857440        0.83520984129486
H           -1.08542189158261       -3.06182437937786       -0.93058238535597
H           -2.54100832420646       -2.53388220494648       -0.04269149576223
H            1.95928102024623       -4.27958693527543       -0.26938004267186
25
 energy: 23.919662174375 xtb: 6.6.1 (8d0f1dd)
C            3.23915812181979        1.20931080225625        0.08482147847774
N            2.27981586525902        0.13868828938612        0.03336684424200
C            2.45241146865322       -1.20357918404667        0.08642351864996
N            1.33381498971857       -1.92018412126078        0.12584440964233
C            0.37647456047595       -0.98608540489437       -0.02496062821409
C            0.90144434294241        0.29230968571803        0.01455556498815
C            0.08220958387759        1.47511279817002        0.00245033956246
O            0.42177465241845        2.62768214696930       -0.02390335375347
N           -1.30399739974045        1.16125351162704       -0.01943595921937
C           -2.27259358633504        2.22460227329127       -0.06070579876704
C           -1.84758799028062       -0.13089861356877       -0.03094750991036
O           -3.03521268468207       -0.32868989838241       -0.05525015350027
N           -0.95987814900402       -1.16162181522447       -0.00637291022335
C           -1.45430314344857       -2.55600658273732       -0.03979111564005
H            3.69928410166582        1.26470139820426        1.07370464327977
H            4.01501598995120        1.05929650955226       -0.66070506403168
H            2.73221275239103        2.16116102360989       -0.10378477896748
H            3.47369640768414       -1.57146345518969        0.07870057663776
H           -1.74157438870473        3.17144088208566       -0.04680092777307
H           -2.87801971627864        2.14208340275718       -0.96540783105363
H           -2.93903136874527        2.14995108634429        0.80017279729429
H           -1.08751086250638       -3.08126694261592        0.83544632654496
H           -1.07972054516343       -3.05245539604289       -0.93264464646122
H           -2.53843193581581       -2.52840559924576       -0.04640880552588
H            2.04276323882027       -4.56790800801849       -0.29133310408391
25
 energy: 23.491116800392 xtb: 6.6.1 (8d0f1dd)
C            3.23817736308225        1.22001914757045        0.08627818794778
N            2.27032124011197        0.15206872142395        0.03577395767084
C            2.46371968089029       -1.15803099844100        0.07664418530266
N            1.34113805497486       -1.79702302649680        0.10293871473596
C            0.37052370000889       -0.92677468836466        0.00967869536549
C            0.90631280092798        0.34330222826028        0.00541501212417
C            0.06748965766398        1.49681472912124       -0.00660095954795
O            0.43407765570215        2.65712052970715       -0.01387350129046
N           -1.28272006868609        1.13491584399228       -0.02329709942185
C           -2.26442240518470        2.21080865457992       -0.05926849589178
C           -1.84065919192251       -0.15339650916582       -0.03531276186486
O           -3.04132394818536       -0.30256395429840       -0.06264982776418
N           -0.95760035447872       -1.20133400531607       -0.00542193605916
C           -1.45599832975475       -2.57176165049517       -0.04258411296985
H            3.70818110345103        1.26172529658279        1.07140260981021
H            4.01161937983133        1.06005743500550       -0.66466790746547
H            2.72945693284111        2.16413822298761       -0.10052700814253
H            3.46642549233221       -1.59101180711393        0.07799519595207
H           -1.73076098816856        3.15933341490942       -0.04413564965468
H           -2.87107286951724        2.13907056465777       -0.96318154185984
H           -2.93311860738993        2.14266216279114        0.79989787803867
H           -1.10029898952903       -3.10257920403706        0.83830812571037
H           -1.09112755910485       -3.07253455351836       -0.93714257779952
H           -2.54217850158224       -2.51734003160054       -0.04980476557117
H            2.01605305665839       -4.75865773399761       -0.26883050516035
25
 energy: 20.361204323723 xtb: 6.6.1 (8d0f1dd)
C            3.23819295158864        1.23413586371512        0.08898302690749
N            2.26319513488747        0.17523794813188        0.03664000357060
C            2.47450712965095       -1.16223194032997        0.07101607162126
N            1.34666731899326       -1.86551089018683        0.08270998598634
C            0.37234846818011       -0.94044628097998        0.01638556526788
C            0.89636963060752        0.34939407664846        0.00708715650969
C            0.05958485539135        1.50502510916646       -0.00876238284561
O            0.42309298048128        2.67207351544329       -0.00944090434226
N           -1.29272365205692        1.14714078108491       -0.02582201363500
C           -2.27436464229807        2.22257193897536       -0.06104525156544
C           -1.84030065255749       -0.13318545731681       -0.03558038892871
O           -3.04160074715608       -0.29102041460240       -0.06428413338643
N           -0.96237348441429       -1.19387781288307       -0.00441808943206
C           -1.44944734049308       -2.55528323939377       -0.03930515480358
H            3.71171105333398        1.26920768716293        1.07391890888932
H            4.01122292605289        1.06640400996502       -0.66295241826903
H            2.74137148178166        2.18453549501976       -0.09731775488276
H            3.45991902102839       -1.57610506447499        0.07297750969261
H           -1.74049462319768        3.17079963582589       -0.04596631244429
H           -2.87779051428429        2.14249461466464       -0.96574639165819
H           -2.93830812296871        2.14585824247034        0.79994594859786
H           -1.09216744592795       -3.09095782241740        0.83932476431927
H           -1.07859331543704       -3.05765886965779       -0.93204194032369
H           -2.53616905008747       -2.51537613698608       -0.04892160309218
H            2.03836494387402       -4.91419620030091       -0.26035028955850
25
 energy: 20.061585625868 xtb: 6.6.1 (8d0f1dd)
C            3.23940941378947        1.23395199982899        0.08903913232129
N            2.26233244134221        0.17687647269550        0.04003751140449
C            2.47729354129627       -1.15721071041122        0.06267332484175
N            1.35553166717935       -1.86364635692095        0.06465518465515
C            0.37598142540646       -0.94290725965034        0.01460577385020
C            0.89771396247774        0.34548459225919        0.01549444438396
C            0.05794709368841        1.50387343117306       -0.00251978974656
O            0.42438297107316        2.66724332427077       -0.00895996148111
N           -1.29183583279964        1.14629025265417       -0.02502373685497
C           -2.27409133605889        2.22106583080472       -0.06167610444198
C           -1.83636332399802       -0.13436199357956       -0.03471075784176
O           -3.03587144480558       -0.29763978326958       -0.06308323135444
N           -0.95740202196765       -1.19621542817790       -0.01010772720043
C           -1.44776178658462       -2.55535058230962       -0.04141086975546
H            3.71278002852992        1.27034482315536        1.07324245513098
H            4.01083855077369        1.06468494171954       -0.66342462806621
H            2.74347470179218        2.18520442720720       -0.09841666080145
H            3.46202966150337       -1.57613868870421        0.06989402416298
H           -1.73802839101107        3.16738324616516       -0.04592078612795
H           -2.87644953254965        2.14041565810921       -0.96667056877532
H           -2.93748327150037        2.14397593397918        0.79929207677072
H           -1.09357775865497       -3.09443363518666        0.83662082790231
H           -1.08120299416518       -3.06264386392344       -0.93348657364467
H           -2.53508874640806       -2.51509856585980       -0.04958045056286
H            1.99765528662396       -4.88211927728475       -0.23352899657404
25
 energy: 19.811900081052 xtb: 6.6.1 (8d0f1dd)
C            3.24075447568299        1.23627739245174        0.09444244621688
N            2.26126473990197        0.18299748429232        0.05025194167156
C            2.48548222984954       -1.14487043375319        0.04610018860794
N            1.37796134988283       -1.86110792798154        0.02135748174847
C            0.38359861802699       -0.94900633372185        0.01228892780242
C            0.89895938558307        0.33935394850211        0.02893437741783
C            0.05560596493756        1.50158422626583       -0.00184045680793
O            0.42772658928191        2.66006575691637       -0.01090687229942
N           -1.29049292014525        1.14545586247759       -0.02809772758298
C           -2.27408682709826        2.22049148731901       -0.06229777514906
C           -1.83145852755977       -0.13493359043997       -0.03610267330994
O           -3.03011764048341       -0.30466390836296       -0.06040138706270
N           -0.95038071226457       -1.19985032956169       -0.01924987182721
C           -1.44574985231020       -2.55449727674852       -0.04114087901854
H            3.71328100616414        1.27462945684617        1.07800196722219
H            4.00943349909267        1.06329661144830       -0.65903152093600
H            2.74428776951435        2.18695312491257       -0.09655624520419
H            3.46821681269662       -1.57184136698718        0.05870037625034
H           -1.73804703362786        3.16642845475882       -0.04719831587213
H           -2.87752170385376        2.14005169245957       -0.96579557877505
H           -2.93612880606029        2.14364988650038        0.79935530617077
H           -1.09356386055049       -3.09396232950716        0.83857514927740
H           -1.08205422045864       -3.06784112482873       -0.93199518936178
H           -2.53413735458210       -2.51515613230166       -0.04839909864041
H            1.92938132335237       -4.87447584221228       -0.19196065834389
25
 energy: 19.786502060889 xtb: 6.6.1 (8d0f1dd)
C            3.24144157089740        1.23776315564146        0.09309367129255
N            2.26194946606631        0.18510618953208        0.05187578183927
C            2.48637112482503       -1.14207680678212        0.04381461714568
N            1.38331924969598       -1.86132419988942        0.01601596741228
C            0.38503624701597       -0.95176429350426        0.01316950016858
C            0.89792432697012        0.33833246515240        0.03319082206291
C            0.05622165728624        1.50131684858888        0.00177020029650
O            0.42699959777162        2.66054689864497       -0.00799256239475
N           -1.29086804501355        1.14590656159711       -0.02649745175661
C           -2.27396780002203        2.22043707713606       -0.06275340572983
C           -1.83173301207239       -0.13484770710405       -0.03532396634056
O           -3.03049685621382       -0.30499138996216       -0.06139383747335
N           -0.95022020717794       -1.19881822765306       -0.01843362236779
C           -1.44609285508140       -2.55512904009401       -0.04244824298398
H            3.71556591375675        1.27652192465281        1.07579650191695
H            4.00884331023787        1.06293941821807       -0.66135472069930
H            2.74556536839905        2.18871899583439       -0.09847809733214
H            3.46936020358118       -1.56900047708500        0.05815835290831
H           -1.73826897763973        3.16672275886180       -0.04691891079243
H           -2.87617621635091        2.13992768066302       -0.96734515021243
H           -2.93741624680374        2.14366192582673        0.79810106508505
H           -1.09369762380476       -3.09494630297838        0.83662732430993
H           -1.08147407593422       -3.06627966427187       -0.93398789375139
H           -2.53400060974141       -2.51532025214069       -0.05016162715786
H            1.91802879432482       -4.88437475014073       -0.18149040325102
25
 energy: 19.774127621976 xtb: 6.6.1 (8d0f1dd)
C            3.24140194681668        1.23879010837592        0.09465487328194
N            2.26313071142535        0.18606884120259        0.05201748447507
C            2.48691026584221       -1.14092385120930        0.04253462503389
N            1.38654364878085       -1.86147668457567        0.01326528456075
C            0.38591756086545       -0.95406937588291        0.01125388131169
C            0.89696902076842        0.33763161258748        0.03204378109346
C            0.05799732634703        1.50085261325415       -0.00107003450136
O            0.42661006479690        2.66114673315741       -0.01044868135105
N           -1.29112497543205        1.14649217868353       -0.02752604763435
C           -2.27367282392220        2.22035978450597       -0.06240067165569
C           -1.83211682056855       -0.13490605426151       -0.03640949184372
O           -3.03095010108003       -0.30478579226906       -0.06133324972890
N           -0.95039147306785       -1.19719614160669       -0.01790486139276
C           -1.44658362486729       -2.55593790568364       -0.04150902420734
H            3.71453642562667        1.27669601135338        1.07799515770242
H            4.00961680468159        1.06410398999735       -0.65905657771895
H            2.74531020330794        2.18946794118542       -0.09695230081980
H            3.47066569489131       -1.56690698809505        0.05744023321542
H           -1.73856687430318        3.16715815057413       -0.04696157448876
H           -2.87733330269359        2.14036609855391       -0.96631663319729
H           -2.93642734657276        2.14354435367564        0.79925306600480
H           -1.09278527049215       -3.09335482632621        0.83802769914478
H           -1.08138189143012       -3.06619509253263       -0.93275588728072
H           -2.53399374092409       -2.51543768985087       -0.04891950192677
H            1.91193287617595       -4.89245922606931       -0.18188763588216
25
 energy: 19.772904450882 xtb: 6.6.1 (8d0f1dd)
C            3.24131937102315        1.23902284914227        0.09361782826258
N            2.26353784082931        0.18609028042844        0.05178829723888
C            2.48714376411893       -1.14095416106025        0.04411445958005
N            1.38693306067569       -1.86137174720435        0.01631543220790
C            0.38602778820657       -0.95456520601050        0.01200611126159
C            0.89658845621431        0.33773427857676        0.03217334832261
C            0.05876251592121        1.50066144434133        0.00018405870086
O            0.42627746298801        2.66142325351223       -0.00901543176095
N           -1.29130746347417        1.14658588643156       -0.02647097577246
C           -2.27362497765985        2.22028187061116       -0.06254293001016
C           -1.83218872912431       -0.13515914601094       -0.03580069940964
O           -3.03104268926260       -0.30455339259973       -0.06187320874656
N           -0.95041421287997       -1.19679707428675       -0.01651446738648
C           -1.44671813618065       -2.55628869401559       -0.04197785803755
H            3.71518725614428        1.27717912190304        1.07667404766691
H            4.00923987040092        1.06405069894848       -0.66050268304337
H            2.74506770534836        2.18946711259895       -0.09796096312863
H            3.47111326172993       -1.56650581822116        0.05820147883099
H           -1.73878797603893        3.16727971198576       -0.04698500052417
H           -2.87672167695671        2.14026365422723       -0.96692650664808
H           -2.93730017156216        2.14395388335603        0.79852341697474
H           -1.09296804272509       -3.09370772626323        0.83732140405983
H           -1.08069500364605       -3.06511693234466       -0.93351576128762
H           -2.53402818849755       -2.51540633552052       -0.04980494687972
H            1.91081321937985       -4.89453902378150       -0.18399453827702
25
 energy: 19.770806428846 xtb: 6.6.1 (8d0f1dd)
C            3.24130207632029        1.23930340845419        0.09346835151699
N            2.26373246950806        0.18633475050538        0.05073779413832
C            2.48788904009113       -1.14068460373356        0.04572851947761
N            1.38729110634095       -1.86103997338700        0.02058969557066
C            0.38619042067247       -0.95468477145371        0.01176090138794
C            0.89645226652933        0.33801879846749        0.03044386337254
C            0.05931481036977        1.50051602497292       -0.00048777022601
O            0.42588751857241        2.66151270289511       -0.00959596224001
N           -1.29153486183570        1.14645884004068       -0.02648869499611
C           -2.27357317798617        2.22009610226867       -0.06236467906336
C           -1.83195586341099       -0.13555835355570       -0.03599904283359
O           -3.03082186451373       -0.30467269980181       -0.06203703217343
N           -0.95005726628313       -1.19695676649891       -0.01599289502938
C           -1.44673400520520       -2.55655840129832       -0.04183437792992
H            3.71500270716504        1.27686118145002        1.07672799974214
H            4.00971708905873        1.06459064050499       -0.66031305169685
H            2.74532115546952        2.18983694919255       -0.09771263757975
H            3.47169705108547       -1.56621412482387        0.05890837756868
H           -1.73852765130100        3.16697341555209       -0.04678998223395
H           -2.87685949877763        2.14033104844091       -0.96666241041422
H           -2.93708115866053        2.14381741113454        0.79882069655714
H           -1.09305368703463       -3.09386695362107        0.83747934987808
H           -1.08096114812220       -3.06529113384167       -0.93334213089768
H           -2.53410072544005       -2.51531490910754       -0.04951365325248
H            1.90767750236018       -4.89477979401231       -0.18849731644882
25
 energy: 19.770010330081 xtb: 6.6.1 (8d0f1dd)
C            3.24133088379342        1.23933597690836        0.09346425739802
N            2.26352792631246        0.18659248261354        0.05068685632734
C            2.48838351450465       -1.14027795442184        0.04601289535439
N            1.38775318972243       -1.86096726587101        0.02098784038579
C            0.38637656331443       -0.95452880224089        0.01177339754750
C            0.89678602109442        0.33785296801346        0.03053718027435
C            0.05903831778104        1.50051300275744       -0.00025589960259
O            0.42623405556795        2.66117591794984       -0.00956964151986
N           -1.29146624764738        1.14638488611976       -0.02646912482236
C           -2.27365289416226        2.22014524150255       -0.06245244347352
C           -1.83169594856396       -0.13539836923479       -0.03570090584714
O           -3.03054246956858       -0.30493056305520       -0.06166609182220
N           -0.94973440784074       -1.19735221836112       -0.01632967295254
C           -1.44647310615226       -2.55626321722269       -0.04181383329095
H            3.71483834972024        1.27691796487999        1.07678042024593
H            4.00956831876539        1.06456746644046       -0.66038969770518
H            2.74514892198169        2.18977988670624       -0.09776196791595
H            3.47185469377243       -1.56634264801579        0.05905856818250
H           -1.73859067399539        3.16698710183701       -0.04702721371688
H           -2.87684409081739        2.14015008446374       -0.96673226774662
H           -2.93712651551959        2.14392934666442        0.79870962045517
H           -1.09305979082019       -3.09395722158606        0.83752905647995
H           -1.08093803144405       -3.06555955295304       -0.93331169999509
H           -2.53394690908316       -2.51527286785889       -0.04952310101460
H            1.90544463425694       -4.89445285729149       -0.18950261903087
