25
 energy: 0.000000000000 xtb: 6.6.1 (8d0f1dd)
C            3.23720163006194        1.16630919979326        0.08434469647475
N            2.29877817382611        0.07527477071623        0.03981603040599
C            2.58028210190900       -1.21425402444508        0.03006176031096
N            1.43813958087363       -1.93419271955128        0.00098261760884
C            0.39035688448383       -1.05887472636071       -0.00790371836672
C            0.93510056364412        0.21347819449412        0.01709077491437
C            0.09450143893243        1.40504303904423       -0.00410947031874
O            0.49712751527797        2.54126714362870       -0.00342325688240
N           -1.25076640035757        1.06271879480407       -0.03085478223738
C           -2.21907211982101        2.15522099834493       -0.05001256985998
C           -1.81739487048744       -0.20012725993278       -0.04692818574614
O           -2.99983886758376       -0.37846417018721       -0.07008878229737
N           -0.92618586207120       -1.30210215599479       -0.03682761578324
C           -1.46982264913417       -2.64643102187190       -0.06029820460571
H            3.71247264356769        1.21471455160235        1.06488849150277
H            4.00791497605742        1.03430808813993       -0.67357694370751
H            2.69910007168542        2.09770118228144       -0.09130154882931
H            3.56654120610678       -1.63682992603973        0.04233140067262
H           -1.67107961066214        3.09322851271934       -0.02552706933167
H           -2.82428953597071        2.09428624779827       -0.95318082946668
H           -2.87644029173232        2.07745725625962        0.81450067533302
H           -1.17061996399332       -3.19584890659852        0.83242232437030
H           -1.14560257411436       -3.17511610292205       -0.95688275822323
H           -2.55549792440841       -2.55659984320617       -0.07459039797972
H            1.38130855184625       -2.94313852034425       -0.01389874181052
25
 energy: -2.517287557396 xtb: 6.6.1 (8d0f1dd)
C            3.23542554903103        1.17908435877305        0.08924075258046
N            2.29872275335378        0.09001602503770        0.04256874535918
C            2.59233671171391       -1.24193537529825        0.03299153076413
N            1.43866109438204       -1.98971119705626       -0.00653397519270
C            0.40227727948111       -1.07858391153524       -0.00506023652724
C            0.92380109566830        0.21371019879072        0.01977072125603
C            0.09736000190887        1.40000840142475       -0.00297730775226
O            0.49387542966408        2.56699135313886       -0.00510814072006
N           -1.26566237424396        1.06348127774991       -0.02957336776795
C           -2.23047142180569        2.16078628957482       -0.05362789196094
C           -1.82260730446450       -0.19012677479285       -0.04319257342148
O           -3.01955105818661       -0.37080806908231       -0.06720436413903
N           -0.93294004882460       -1.29615326432752       -0.03276161670725
C           -1.47045481103308       -2.63225977608540       -0.05537394566361
H            3.71572687086738        1.23212951880498        1.07028307029349
H            4.00710877640846        1.04371384154383       -0.67037060528428
H            2.70162559963723        2.11185858681384       -0.09039466831985
H            3.57409589681042       -1.64942588175477        0.04521939777507
H           -1.67896958074953        3.09858422358432       -0.03197062569366
H           -2.83759842006782        2.10462504245794       -0.95717800050515
H           -2.89241953626249        2.09428116831536        0.80971829580959
H           -1.15429055748208       -3.17604709930340        0.83622092913076
H           -1.13294044683432       -3.15381324241549       -0.95231277697834
H           -2.55545779476107       -2.54374697473714       -0.06728826152170
H            1.42456096372538       -3.04763011744944       -0.04805118866593
25
 energy: 2.405781230968 xtb: 6.6.1 (8d0f1dd)
C            3.23212394755946        1.18355101559104        0.09467411581788
N            2.29544460942795        0.09574835895698        0.04518212685059
C            2.59630443691476       -1.26244724263788        0.03506898808761
N            1.43744460259128       -2.03774328721048       -0.01521944252771
C            0.41165371286263       -1.10001048880450       -0.00546318992770
C            0.91143011110597        0.20554532292850        0.02362166904692
C            0.09930237248074        1.38512546824264        0.00011892237690
O            0.48470933867749        2.56502502983810       -0.00613607452804
N           -1.28299418250691        1.06933646164425       -0.02749707871573
C           -2.24200995355775        2.17232412447307       -0.05837630577584
C           -1.82456498379588       -0.17643459486768       -0.03914742723985
O           -3.02593578691813       -0.36416993493871       -0.06231152387752
N           -0.93940633187086       -1.28338205332412       -0.02912461123763
C           -1.47066394080133       -2.61477157646165       -0.04894161763571
H            3.71524263814490        1.24740015894288        1.07588866329088
H            4.00686390909097        1.05211180638912       -0.66458348401984
H            2.70170125929556        2.11861783861215       -0.08863205069330
H            3.57930004457856       -1.65142352324661        0.04781583932387
H           -1.68747210628814        3.10942852711897       -0.04050427134846
H           -2.85071129172900        2.11733115456124       -0.96207606691366
H           -2.90937661250248        2.11616804110998        0.80274723600392
H           -1.13692615770376       -3.15391898860389        0.84030586941074
H           -1.12308318775205       -3.13089574977967       -0.94609098350033
H           -2.55536742538708       -2.53419722281611       -0.05641100387146
H            1.48920564601931       -3.13929004354558       -0.08787440224923
25
 energy: 5.173577956097 xtb: 6.6.1 (8d0f1dd)
C            3.23042588174614        1.18252327670135        0.09702517596661
N            2.29479476571088        0.09437298740990        0.04392558395381
C            2.59477528941869       -1.26886676959683        0.03311778549666
N            1.43560986728614       -2.05173971214899       -0.01887131899220
C            0.41407427108934       -1.10809100090952       -0.01083385011037
C            0.90804260761675        0.19976614399003        0.02304807011749
C            0.10037216202965        1.37930816856050        0.00124167285656
O            0.48101972838112        2.55886901338459       -0.00480462042906
N           -1.29022536907576        1.07555275369213       -0.02652622334998
C           -2.24669243985438        2.17945593239337       -0.06010834957908
C           -1.82572343749536       -0.17052846325265       -0.03782615879753
O           -3.02621737280612       -0.36499431514455       -0.05884016691343
N           -0.94107054799071       -1.27542169784648       -0.02937114364211
C           -1.47004783155703       -2.60794059055752       -0.04643024009468
H            3.71094429271502        1.25052308872997        1.07945769737306
H            4.00755777337174        1.05474462783996       -0.66031885781393
H            2.70010772722564        2.11836727897420       -0.08760300657451
H            3.58137720147685       -1.65024191644675        0.04826048986382
H           -1.69173671619954        3.11609810561446       -0.04409077588830
H           -2.85549764909017        2.12267607670467       -0.96391646978318
H           -2.91561682423322        2.12602784599812        0.80015116863363
H           -1.12823017206330       -3.14453097286341        0.84134736939112
H           -1.12118173311366       -3.12209415148922       -0.94419316851836
H           -2.55496698317576       -2.53403002274196       -0.04995745127235
H            1.52032017652326       -3.17077708482334       -0.09684931574642
25
 energy: 5.891086419233 xtb: 6.6.1 (8d0f1dd)
C            3.23011915555017        1.18117458832233        0.09771901388960
N            2.29549190851665        0.09245651636306        0.04227368641097
C            2.59258109240287       -1.27003353577605        0.03127355222205
N            1.43359479334467       -2.05254630074067       -0.01976448692207
C            0.41380103957630       -1.10956611592585       -0.01433455875509
C            0.90815284606064        0.19763568028284        0.02171558479259
C            0.10126628430104        1.37852400256022        0.00106773298055
O            0.48001355418740        2.55633556390531       -0.00397676053844
N           -1.29198261297944        1.07858806484720       -0.02630036030379
C           -2.24776856755615        2.18171284616995       -0.06039599733725
C           -1.82670910447409       -0.16895451754203       -0.03742770378778
O           -3.02601361827668       -0.36671928739751       -0.05739097989009
N           -0.94141117785563       -1.27178782719435       -0.02969735493594
C           -1.46944528926878       -2.60634504258383       -0.04587702097940
H            3.70806799285939        1.24999879317897        1.08117342644303
H            4.00853731809845        1.05487882150078       -0.65815476987144
H            2.69932908752138        2.11702138118055       -0.08759864683380
H            3.58089224689715       -1.64912489355361        0.04856809945831
H           -1.69332880517842        3.11838250330088       -0.04492982210747
H           -2.85659995278607        2.12377052072343       -0.96418619059576
H           -2.91662673506563        2.12841213780694        0.79989297864025
H           -1.12485325491321       -3.14161720385949        0.84126875073377
H           -1.12097292112716       -3.11959224238282       -0.94414470627891
H           -2.55444674321981       -2.53576631007178       -0.04761744746239
H            1.53052613132115       -3.17780954094242       -0.09612212282421
25
 energy: 5.949115376755 xtb: 6.6.1 (8d0f1dd)
C            3.23017752730128        1.18048094623600        0.09785112527450
N            2.29629917880154        0.09120431132299        0.04130653141415
C            2.59113249579130       -1.27004466406655        0.03021097099473
N            1.43217405944001       -2.05063707795945       -0.01994457667497
C            0.41305713164903       -1.10925686210653       -0.01538924424655
C            0.90883030270065        0.19728689457553        0.02112001653548
C            0.10196882501142        1.37891686474325        0.00080055879512
O            0.47980923648728        2.55603376793532       -0.00381635550542
N           -1.29188171204157        1.07922728471032       -0.02628771805925
C           -2.24759732977163        2.18172239876682       -0.06040398051497
C           -1.82739318785161       -0.16891070145338       -0.03723604026852
O           -3.02608467021284       -0.36741946163787       -0.05703654330895
N           -0.94162776940940       -1.27054099188901       -0.02925186750781
C           -1.46913490761025       -2.60635845188665       -0.04576530591982
H            3.70686384369351        1.24939756150528        1.08180443672412
H            4.00923281983899        1.05459984405866       -0.65723878981821
H            2.69906343739073        2.11610473564755       -0.08793194153808
H            3.57990383771464       -1.64870362426776        0.04901274415106
H           -1.69376188987099        3.11867524730750       -0.04502201886146
H           -2.85657005861993        2.12356174197259       -0.96412588619439
H           -2.91632343896746        2.12835891498725        0.80002644114804
H           -1.12382663105937       -3.14104419297323        0.84115746904628
H           -1.12064835878596       -3.11883287287640       -0.94434579981407
H           -2.55410371026521       -2.53685900718117       -0.04717078106552
H            1.53265563658204       -3.17793400329909       -0.09528954863823
25
 energy: 5.869725063342 xtb: 6.6.1 (8d0f1dd)
C            3.23022300882028        1.18036010396017        0.09775947432450
N            2.29688710499509        0.09060443840907        0.04072411008421
C            2.59052373599037       -1.27010817392618        0.02941322308709
N            1.43147018980542       -2.04910512257393       -0.01995053270595
C            0.41255848245086       -1.10873832345925       -0.01516515193016
C            0.90928544063558        0.19773939277749        0.02110709993806
C            0.10248265746256        1.37935246040745        0.00072240513566
O            0.47976886019183        2.55667931452096       -0.00392021102027
N           -1.29140096255324        1.07878901475961       -0.02630114929583
C           -2.24717121221558        2.18111078600075       -0.06036173303033
C           -1.82773930047324       -0.16921081563732       -0.03717135074602
O           -3.02632397637957       -0.36724831638051       -0.05722110621657
N           -0.94185992913594       -1.27043209041177       -0.02837134139165
C           -1.46903471598598       -2.60671209935623       -0.04574408843881
H            3.70654998764585        1.24928919179144        1.08188409957424
H            4.00963304662358        1.05459036459206       -0.65699524327997
H            2.69888248297935        2.11571749365968       -0.08826244406252
H            3.57924439170678       -1.64887258170609        0.04963840905308
H           -1.69370176664665        3.11833673833028       -0.04489563989645
H           -2.85627594858382        2.12318201369487       -0.96404903724752
H           -2.91593547349479        2.12777912833345        0.80012305004536
H           -1.12380363769849       -3.14138289722667        0.84108035162401
H           -1.12018086938535       -3.11854085723037       -0.94448267973456
H           -2.55395411234540       -2.53720488458363       -0.04745474646205
H            1.53208718352673       -3.17694567657331       -0.09507187126023
