25
 energy: -42.110646527503 gnorm: 0.009478624397 xtb: 6.6.1 (8d0f1dd)
C            3.20893784472170        1.01289217994227       -0.32157892422728
N            2.32073531663334        0.01874651466332       -0.26393902212883
C            2.56233797390388       -1.30941215207222       -0.29300599633007
N            1.39329555366134       -1.99647902889478       -0.18822813821549
C            0.37901227082993       -1.09465014976773       -0.08972378793181
C            0.94251451278141        0.16910387965128       -0.13544487929093
C            0.14188062108401        1.37057865643872       -0.07582764829184
O            0.55956715608119        2.50299476387612       -0.10743434042209
N           -1.21745474006268        1.06421803249608        0.02186113894933
C           -2.15401324665182        2.17855098532014        0.06426098378059
C           -1.80495586370666       -0.18571673792398        0.07607568512312
O           -2.99086177526053       -0.33746521910011        0.16072946955999
N           -0.94155596843372       -1.30455757981580        0.02636255567131
C           -1.51436877336951       -2.63416453886026        0.08437858910400
H            2.53620765575683        1.86133258941328        2.02556309534849
H            4.23489420866858        0.76987671324905       -0.55819900528745
H            2.84447498814589        2.02417685334689       -0.34882786316589
H            3.52959257561904       -1.75961954337816       -0.38594469474780
H           -1.58267409198300        3.10350150849461        0.04286644968664
H           -2.82562886646014        2.12924056858151       -0.79339278760427
H           -2.75474210314749        2.12290246561774        0.97195892947550
H           -1.17351602199249       -3.15875240947380        0.97751278366076
H           -1.25337728417214       -3.20321915387460       -0.80803840028155
H           -2.59712479886394       -2.52262639316422        0.13120650086652
H            1.31725437031708       -3.00321426316542       -0.18201907540132
