  25
        -42.16664440
 C          4.2052430364        0.3850469793       -0.1505286033
 N          3.3858149733       -0.5241631183        0.1457816460
 C          2.6875343469       -1.5747985738       -0.0485931818
 N          1.3542334807       -1.6941486916        0.0103942296
 C          0.3857045301       -0.6850884488        0.0287244758
 C          0.6896171076        0.6380811158        0.0523273865
 C         -0.3409299310        1.6531207032        0.0341812011
 O         -0.1198073374        2.8422738163        0.0396861192
 N         -1.6391541793        1.1502787941       -0.0000157044
 C         -2.7418970957        2.0950755262       -0.0287581627
 C         -1.9779031270       -0.1768204366       -0.0097660332
 O         -3.1196771191       -0.5542089060       -0.0345413350
 N         -0.9140315061       -1.1019528048        0.0054881115
 C         -1.2886929256       -2.5044787422       -0.0113968320
 H          4.6766199497        0.9534048785        0.6485484066
 H          4.4464151715        0.6323691374       -1.1845438205
 H          1.6966363331        1.0026972648        0.0863247157
 H          3.2330704641       -2.5155084785       -0.1250223859
 H         -2.3210736634        3.0986805802       -0.0353801533
 H         -3.3478040012        1.9301248982       -0.9197117940
 H         -3.3746775731        1.9544755942        0.8477686106
 H         -0.9389058069       -3.0199950372        0.8846058342
 H         -0.9327567695       -3.0010428480       -0.9160073898
 H         -2.3798146805       -2.5367049433       -0.0163603065
 H          0.9860404421       -2.6387875491       -0.0037166583
