  25
        -42.09437747
 C          3.0699988813        1.5442342582        0.0129566163
 N          2.2914477548        0.3875546272       -0.0067464862
 C          2.5811047828       -2.1871306222       -0.0109685784
 N          1.2961361015       -2.1405604556       -0.0065740060
 C          0.4445432686       -1.0403885892       -0.0023939006
 C          1.0074896588        0.2516705020        0.0009476850
 C          0.0532782133        1.4167029037        0.0024900380
 O          0.4394108675        2.5619637073        0.0050773070
 N         -1.2743770767        1.0839902860       -0.0044346634
 C         -2.2595730694        2.1602883147       -0.0068438695
 C         -1.8112915714       -0.1899381177       -0.0006538344
 O         -2.9950808445       -0.3861370856        0.0011016772
 N         -0.8949114273       -1.2518718170        0.0013585675
 C         -1.4586551383       -2.5901484105        0.0096872145
 H          3.6286179389        1.5937438286        0.9537269025
 H          3.8003984696        1.5056601311       -0.8002089608
 H          2.4518918914        2.4448010650       -0.0832182161
 H          3.1976584046       -1.2914070921       -0.0075804558
 H         -1.7355849549        3.1123863435       -0.0022451231
 H         -2.8872152293        2.0767318753       -0.8938339968
 H         -2.8959736234        2.0729115483        0.8735363116
 H         -1.1661883589       -3.1346800368        0.9091815010
 H         -1.1795556880       -3.1410898146       -0.8902350216
 H         -2.5442841993       -2.4781789407        0.0169586496
 H          0.8018994828       -3.0419477115       -0.0085284466
