25
 energy: 32.220248613881 xtb: 6.6.1 (8d0f1dd)
C            3.51268386207613        3.42975432178505        0.32412192864021
N            2.33270595849234       -0.78428212525580       -0.16192098674998
C            2.36940926900796       -2.06999074809016       -0.06901407376769
N            1.10810380384251       -2.63722856242500       -0.03340291709594
C            0.24150478990555       -1.59072382327229       -0.08642682643442
C            1.01287708181093       -0.44617155065478       -0.15895433385644
C            0.40087945096017        0.84935476358621       -0.19633408316653
O            0.95201086825220        1.91072702890981       -0.33500122019607
N           -0.99208350568393        0.78735070832208       -0.03640812213692
C           -1.68500917830133        2.06390853124143        0.11236684094386
C           -1.77471368100733       -0.34310730317613       -0.01962542055577
O           -2.98588852213236       -0.30013236469802        0.01931192633070
N           -1.11399068073727       -1.56973176506590       -0.07572122985679
C           -1.90806507707590       -2.76920983462096       -0.16182725905486
H            4.05373742872231        3.64852042824639        1.20876088513678
H            3.93563152147950        3.52118065007060       -0.65070695107811
H            2.54199689721859        3.00400104781428        0.40496662710958
H            3.26745546414004       -2.65154603729814       -0.02952514814362
H           -0.96356495665797        2.88048031896892       -0.00413664141292
H           -2.45736487126103        2.15352933588317       -0.65175073129223
H           -2.15617739793582        2.08356918104317        1.09643388531240
H           -1.81143497864083       -3.33396031733707        0.76048560290216
H           -1.61789752348704       -3.35924451605364       -1.03272932842048
H           -2.94227545451769       -2.44765341367588       -0.26606634806674
H            0.88605728706668       -3.62249233025924       -0.01241319285340
