25
 energy: 49.437843608707 xtb: 6.6.1 (8d0f1dd)
C            3.03338052905980        1.83758539617694        0.21556113734362
N            2.42934863085657       -0.11506899967336       -0.10975238289112
C            2.67011360185059       -1.40054207746657        0.14208150537083
N            1.49486772250698       -2.14346168847517        0.14985572542029
C            0.45829968771586       -1.27319318790412       -0.00983501011790
C            1.05712481831332       -0.02683268643885       -0.12919815915430
C            0.24817416908741        1.12471295352884       -0.33331181563190
O            0.59487299118224        2.22180651951785       -0.73612303958590
N           -1.12186204246454        0.91515155280138       -0.06270613725767
C           -1.95267183556854        2.10926902390157       -0.00761980253037
C           -1.73466090787853       -0.29915933353986       -0.04663960251829
O           -2.94059201880630       -0.39465289257423        0.00216651180632
N           -0.90808928724313       -1.44319510555231       -0.05746737226370
C           -1.65259253497046       -2.68891110870694       -0.08924891318086
H            3.62473151133657        2.02126216735564        1.05525713912863
H            3.55371859006400        1.95468953793890       -0.72922666237566
H            2.06471106363365        2.25339498131616        0.28575351898493
H            3.58413478595997       -1.97636063645720        0.19650695751379
H           -1.33581664750410        2.98346270589421       -0.03475070433044
H           -2.58034975585832        2.19130413781155       -0.86661248295872
H           -2.48363589004493        2.16627099163669        0.93018687562155
H           -1.49452951180941       -3.27985117121097        0.81515289802339
H           -1.41174154480366       -3.28267092062726       -0.97106030063906
H           -2.70907129858332       -2.37992065759298       -0.14808748178565
H            1.48180256728227       -3.15127005082817        0.16240158807541
