72
 energy: -99.302494838484 gnorm: 0.008035244954 xtb: 6.6.1 (8d0f1dd)
N           -1.97547979328713        3.15553148352776        1.89212217093476
C           -2.01929393345370        2.43222834113340        0.87514238619299
C           -3.26956422552843        2.09360638547011        0.11197044146377
C           -3.55478370943768        0.60495049401250        0.24001029742384
C           -4.52561951116826        0.01136815621577       -0.56927387414951
C           -4.85498697962050       -1.32738700713775       -0.44007262268383
O           -5.78340959638538       -1.97677672791298       -1.17295612252836
C           -6.55815060496293       -1.25607194730494       -2.10176649689854
C           -4.19117249110157       -2.12092891788963        0.53403298607000
O           -4.58410708002650       -3.40931441251134        0.59751412040452
C           -4.04246364638262       -4.24159430155559        1.59615461135275
C           -3.22365639017704       -1.52765677590825        1.32863444840302
C           -2.91102394836590       -0.18196852617636        1.18221902247345
C           -2.98136248201686        2.46440887919967       -1.36614077543951
C           -2.01841330214495        1.50536363148793       -2.09162855697155
C           -0.61761292384100        1.64179820915963       -1.63554478670792
N            0.20630266367231        0.63484463439483       -1.36113237374261
C            1.55657733953112        0.88671341637525       -0.91108782837941
C            2.61716605840601        0.39947975690633       -1.91504178386271
C            3.92978789804645        0.49433274449669       -1.31185710588281
C            4.98415546279631        0.46358720553585       -0.71723837154407
C            6.20825510018902        0.66359414768076       -0.07701704536775
C            7.04328446471116       -0.27929802836344        0.43751711119597
O            8.18005692370997        0.02173012125078        1.09023188252787
C            8.50935834485438        1.36501907341860        1.35738606063800
C            6.84880185910708       -1.74247033974263        0.37049417340146
O            7.81798844892288       -2.38173515931850        1.05714059980824
C            7.83199698409923       -3.78834028292467        1.06253185428373
C            5.84497537491605       -2.33672340620325       -0.29147986780366
C           -0.24220869832145       -0.73908299457586       -1.35747980584996
C           -4.52493478442740        2.86555148195974        0.61788571432409
C           -4.88303145222623        2.47152434999846        2.04906846367994
C           -4.37519306818806        4.38135457392859        0.52354150339775
H           -5.04561428136701        0.61103445636138       -1.29771194561700
H           -7.12589716189520       -0.45642297782411       -1.61625955299799
H           -7.24991041397700       -1.98005402223023       -2.52802027733358
H           -5.94042221981883       -0.83445600420910       -2.90160596372464
H           -4.25545774604210       -3.85582759019356        2.59771251695957
H           -4.53127880034631       -5.20558695575968        1.46953303627278
H           -2.96167274232787       -4.36527129079949        1.47430135169312
H           -2.71409090179387       -2.10102814715851        2.08592009640048
H           -2.17690249161028        0.25276054985111        1.84304916595637
H           -3.92305328021521        2.47637858755240       -1.91364058026046
H           -2.56914291175340        3.47355026725151       -1.40067167124887
H           -2.37666112064869        0.48250604232786       -1.99177392383541
H           -2.05170530452692        1.77161085816069       -3.15583866649605
H           -1.12292209414631        1.99552667358359        0.39456208903811
H           -0.18459193783987        2.63165641846383       -1.64861094994199
H            1.71196790209272        0.37391947296472        0.04554918604973
H            1.69030743084585        1.95857940971015       -0.74729009085292
H            2.57932116698140        1.00146555532239       -2.82745069652697
H            2.42998959941816       -0.64362794319836       -2.18192369134270
H            5.12548663502414       -1.75421694237611       -0.82575832819127
H            6.47980930485897        1.70673096855138        0.00373552574214
H            7.69791996057331        1.88174750633130        1.87913823878682
H            8.76057637905089        1.90646371624596        0.44211268710216
H            9.38506602449780        1.32663778514542        2.00194378418708
H            8.71050157579169       -4.07340492184624        1.63830256030027
H            6.93517668502573       -4.19413950570225        1.54157185975936
H            7.91460538014474       -4.18940249158555        0.04786483073096
H            5.73716419273659       -3.40446548586618       -0.31861390942617
H           -0.56258242010309       -1.04557609573142       -2.35463847270110
H           -1.07733628264187       -0.87285516970637       -0.66243505516249
H            0.57378383962227       -1.38400469990924       -1.04110717983900
H           -5.35514019928973        2.56444159030751       -0.03136565291115
H           -4.08782228100698        2.76629542644046        2.72608176195193
H           -5.04142964674540        1.39929238755784        2.13461010597966
H           -5.79735217912071        2.97694138818493        2.34791473033961
H           -3.53208430125069        4.71465435187191        1.12062986410497
H           -4.24364370366258        4.71413545980499       -0.50253083750067
H           -5.27363117647032        4.85245404160102        0.91312933333219
H           -1.06705318292341        3.33805859441275        2.30696913370929
