  72
        -99.35653991
 N         -1.5935914388        2.6673875679        2.5605968335
 C         -1.6132767426        2.0588110313        1.4709250628
 C         -2.7882442270        2.0215128531        0.5325240310
 C         -3.3528449845        0.6107846124        0.4778771163
 C         -4.2777675675        0.2709811447       -0.5115794965
 C         -4.8408501025       -0.9928875930       -0.5727277168
 O         -5.7368078852       -1.4030188757       -1.4935631291
 C         -6.2201148228       -0.4839584975       -2.4447432506
 C         -4.4743265381       -1.9700284335        0.3926838516
 O         -5.0754107684       -3.1686592344        0.2607808773
 C         -4.8445206976       -4.1626002072        1.2320872988
 C         -3.5562017307       -1.6257005073        1.3721314600
 C         -3.0029497997       -0.3519452293        1.4123291361
 C         -2.2317051992        2.4358904379       -0.8545610497
 C         -1.3985385082        1.3504750377       -1.5602923172
 C         -0.0577348439        1.1419487829       -0.9699847800
 N          0.4933770102       -0.0337578363       -0.7070592731
 C          1.9015883294       -0.1357367529       -0.4004701666
 C          2.7003436506       -0.6677231555       -1.6053223224
 C          4.1746620447       -0.6134430078       -1.3079561190
 C          4.9016002457        0.5320740600       -1.6014992623
 C          6.2568396381        0.5884579275       -1.3118935647
 C          6.8887676886       -0.4868823984       -0.7274046094
 O          7.4633771053        1.9443230659        1.3790728576
 C          8.6325230749        2.1572352757        1.5136716833
 C          6.1665601380       -1.6456501123       -0.4167482733
 O          6.8735924760       -2.6425151395        0.1547725397
 C          6.2301324644       -3.8510361877        0.4846537520
 C          4.8046380518       -1.6976103332       -0.7101243687
 C         -0.2482119773       -1.2684056346       -0.8052950790
 C         -3.9418852787        2.9835197273        0.9477011692
 C         -4.5728452567        2.5636105413        2.2730757539
 C         -3.5066764732        4.4440957434        1.0245966936
 H         -4.5734487219        1.0121897766       -1.2352990732
 H         -6.7123934809        0.3678361695       -1.9660951323
 H         -6.9487482132       -1.0337690160       -3.0371302531
 H         -5.4201850022       -0.1248964438       -3.1006652709
 H         -5.1314577005       -3.8206317472        2.2307721704
 H         -5.4725765723       -5.0033154800        0.9441631144
 H         -3.7969388878       -4.4800450635        1.2410826036
 H         -3.2701980608       -2.3415125319        2.1254699163
 H         -2.3135385552       -0.1119168797        2.2069280088
 H         -3.0668339678        2.6956740637       -1.5040959100
 H         -1.6201717865        3.3307783444       -0.7332364263
 H         -1.9667710445        0.4233883548       -1.6067616226
 H         -1.2415094967        1.6993227265       -2.5893667731
 H         -0.7434926828        1.5146597842        1.0540502944
 H          0.5840222066        2.0064273019       -0.8789542639
 H          2.0384565663       -0.8040244822        0.4541079119
 H          2.2862341595        0.8492837153       -0.1290860971
 H          2.4767205500       -0.0462614558       -2.4745021638
 H          2.3971582137       -1.6919685736       -1.8260278147
 H          4.4128487045        1.3748430915       -2.0668642682
 H          6.8181948489        1.4792385023       -1.5433349299
 H          9.0370703768        2.7811157693        2.3258093102
 H          9.3956747531        1.7384479016        0.8376679937
 H          7.9402474704       -0.4604496432       -0.4974857902
 H          7.0035466096       -4.4908302807        0.9053446178
 H          5.4452235763       -3.6958638402        1.2316903357
 H          5.8050687204       -4.3335767810       -0.4007984893
 H          4.2275231110       -2.5824336096       -0.4879679196
 H         -0.4688567483       -1.5178721724       -1.8454350338
 H         -1.1887039097       -1.1927017177       -0.2544361639
 H          0.3408044575       -2.0737958920       -0.3739087447
 H         -4.7086802791        2.8976699730        0.1689160383
 H         -3.8452920114        2.6454461978        3.0741533026
 H         -4.9379201650        1.5404093421        2.2293196905
 H         -5.4118672598        3.2162291442        2.4991954840
 H         -2.7211281702        4.5649648338        1.7641251833
 H         -3.1574949073        4.8160675167        0.0650698768
 H         -4.3544836420        5.0524765127        1.3282923604
 H         -0.7348047940        2.6515343727        3.1014661516
