  25
        -42.24750044
 C          3.2016154176        1.1344566571        0.1350977564
 N          2.2740463516        0.0524742500       -0.0061505154
 C          2.5442080083       -1.2435500264       -0.0464326482
 N          1.3918873370       -1.9532369522       -0.0658206178
 C          0.3530319418       -1.0690462089       -0.0306658813
 C          0.9075427200        0.1991686972        0.0017735877
 C          0.0822479917        1.3955401670       -0.0215913062
 O          0.4927635133        2.5295445181       -0.0535368544
 N         -1.2713072291        1.0670183919       -0.0156949852
 C         -2.2265737058        2.1687848829       -0.0287684021
 C         -1.8470638337       -0.1905698355        0.0165995589
 O         -3.0324161098       -0.3570629527        0.0577487135
 N         -0.9682220853       -1.2999176886       -0.0097080407
 C         -1.5243922663       -2.6378474866        0.0444330170
 H          3.2850910352        1.4197338676        1.1863442393
 H          4.1858338551        0.8505747754       -0.2331220524
 H          2.8364529282        2.0108643059       -0.4069148809
 H          3.5253762965       -1.6755873639       -0.0726882164
 H         -1.6675728239        3.1010646509       -0.0359257089
 H         -2.8574878178        2.0994586178       -0.9141894495
 H         -2.8632890478        2.1142393798        0.8534473223
 H         -1.1659691245       -3.1621914066        0.9307856084
 H         -1.2697450526       -3.1987448013       -0.8548633808
 H         -2.6076141433       -2.5369689006        0.1047219434
 H          1.3275655648       -2.9605278146       -0.1107445336
