25
 energy: -42.174635788042 gnorm: 0.004594194738 xtb: 6.6.1 (8d0f1dd)
C            3.23768590866319        0.97011191441091        0.38038428241438
N            2.18255274160485       -0.00554283662599        0.31909185868331
C            2.30122142390060       -1.32482769575604        0.45601091692355
N            1.09688773683866       -1.91227697342576        0.30077039297787
C            0.18288201247629       -0.93286162900336        0.05495687776172
C            0.85970580404324        0.27572556192636        0.06824039990983
C            0.16770177221992        1.52620593873391       -0.15261898834404
O            0.64472491632991        2.63554719164822       -0.15436813679069
N           -1.21210822091622        1.28963018522543       -0.37872731373046
C           -1.98907270272787        2.49302569223758       -0.62866942113288
C           -1.85578735456600        0.12837096025094       -0.38831821122141
O           -1.24591523101767       -3.23952138319330        0.54723689066705
N           -1.15240508863835       -1.00461952981298       -0.16135100670333
C           -1.82246354111890       -2.30163235827171       -0.29973279570597
H            3.90400519534905        0.75462363405133        1.21403867181565
H            3.81529415305243        0.95921109121483       -0.54584457977204
H            2.79618208497976        1.95874521142217        0.50112407874565
H            3.21362421964574       -1.84709231557751        0.66348795298114
H           -1.46176561069238        3.11502191465242       -1.35167096692445
H           -2.96679613055204        2.21026987215818       -1.00565366325998
H           -2.09586529252622        3.06343987740234        0.29440322758066
H           -1.68331325931576       -2.65227170157884       -1.33185921376241
H           -2.88813947029765       -2.13516999667701       -0.11937858862707
H           -1.72708356491754       -3.30919624212922        1.38140844906779
H            0.85867901227877       -2.89667784168458        0.36821050435021
