  72
        -99.30954456
 N         -1.8497196306        2.6629838703        2.7208479411
 C         -1.7832885081        2.1298171743        1.5930708061
 C         -2.9346766251        2.0151992648        0.6319643192
 C         -3.3219590716        0.5535240326        0.4735130746
 C         -4.1856030851        0.1706317070       -0.5550336692
 C         -4.5797587549       -1.1469430026       -0.7157893425
 O         -5.4084874760       -1.6009530698       -1.6801413081
 C         -6.0005274223       -0.6829323691       -2.5683256340
 C         -4.0963915689       -2.1367791301        0.1814888930
 O         -4.5245599611       -3.3937768500       -0.0553047140
 C         -4.1575485778       -4.4198741784        0.8369007041
 C         -3.2477224173       -1.7488630380        1.2055639901
 C         -2.8663771597       -0.4202460957        1.3483909017
 C         -2.4172040042        2.5871836735       -0.7137107799
 C         -1.4564230913        1.6605900438       -1.4837442558
 C         -0.1085334589        1.5543406191       -0.8816749909
 N          0.5542200571        0.4227326792       -0.6720630536
 C          1.9489072531        0.4361942728       -0.2993388760
 C          2.8476145227       -0.0017544288       -1.4689424267
 C          4.2945890574       -0.0799732937       -1.0365708909
 C          5.2027605220        0.7794383400       -1.5709778343
 C          6.6113247057        0.9200217059       -1.3710549720
 C          7.3539272091        0.3400524663       -0.4030797543
 O          8.6682215837        0.4315826232       -0.2038318590
 C          9.4569131629        1.1569298732       -1.1274873816
 C          4.3648669338       -2.0837408691        0.5981902690
 O          4.3373287625       -3.0917170299        1.4019261787
 C          5.5805905243       -3.5494500758        1.9207236654
 C          4.5277058592       -1.1090877935       -0.1094981079
 C         -0.0603378258       -0.8715390247       -0.8451314453
 C         -4.2017570040        2.7999735666        1.0867878090
 C         -4.7937016110        2.2150238752        2.3670628872
 C         -3.9488254439        4.2934033498        1.2726877103
 H         -4.5661603223        0.9183113640       -1.2309056365
 H         -6.6000401733        0.0617903648       -2.0361745883
 H         -6.6501406103       -1.2754530808       -3.2095260950
 H         -5.2499801452       -0.1773671233       -3.1850140592
 H         -4.4991362780       -4.2075419735        1.8542907581
 H         -4.6526321382       -5.3167858559        0.4699913316
 H         -3.0744920409       -4.5803766421        0.8408445386
 H         -2.8808531390       -2.4743666074        1.9131590466
 H         -2.2258580501       -0.1510765182        2.1739796020
 H         -3.2711498130        2.7942288546       -1.3579120895
 H         -1.9150661150        3.5358742273       -0.5199193988
 H         -1.9156401935        0.6824337457       -1.6127504228
 H         -1.3304996218        2.1062865325       -2.4789510785
 H         -0.8499994956        1.7220553557        1.1595480345
 H          0.4423966625        2.4708668850       -0.7304250425
 H          2.1039824511       -0.2459124337        0.5419582741
 H          2.2315680081        1.4428415974        0.0151883462
 H          2.7387300218        0.7067638267       -2.2911303113
 H          2.5267095344       -0.9865479992       -1.8153738654
 H          4.8082445987        1.4659217260       -2.3095082929
 H          7.0931989827        1.5846333378       -2.0752191959
 H         10.4868217398        1.0426234890       -0.7925487250
 H          9.1910856936        2.2184249526       -1.1300030220
 H          9.3512597080        0.7508931298       -2.1384309053
 H          5.3388084761       -4.3611030073        2.6035853724
 H          6.2250658700       -3.9175436820        1.1180288199
 H          6.0954877395       -2.7511767349        2.4612350808
 H          6.8939260135       -0.2925887159        0.3497492253
 H         -0.2331436813       -1.0916711438       -1.9009746383
 H         -1.0157092586       -0.9136814046       -0.3169661384
 H          0.5956864115       -1.6352264906       -0.4345261839
 H         -4.9425487033        2.6772919427        0.2879582499
 H         -4.0885129537        2.3207380386        3.1850145107
 H         -5.0375942034        1.1627751423        2.2432581824
 H         -5.7048171656        2.7490464176        2.6234504858
 H         -3.1965300696        4.4553556521        2.0383905951
 H         -3.6305788952        4.7703274560        0.3495006418
 H         -4.8695667020        4.7728938878        1.5945588186
 H         -0.9986867803        2.7102746302        3.2726137934
