  25
        -42.10481977
 C          2.7569303097        1.3599733653       -0.0429076755
 N          2.1455656661        0.0580523208       -0.0322239892
 C          2.7684908270       -1.1168150052       -0.1350254223
 N          1.8574743611       -2.1208846034       -0.0983671907
 C          0.6177530407       -1.5643361719        0.0316272273
 C          0.7934338679       -0.1821485260        0.0722615423
 C         -0.3571116735        0.6926621407        0.1463002211
 O         -0.3133216289        1.9323973897        0.1573268657
 N         -1.5246724190       -0.0081562469        0.1818443900
 C         -2.7478487564        4.1115527744       -0.3847291314
 C         -1.6539662007       -1.2740521990        0.1649551665
 O         -2.6692272426        2.8725592024       -0.1213139710
 N         -0.6026313806       -2.1411401370        0.0906178915
 C         -0.7896136594       -3.5738699396        0.0492465240
 H          3.4592439656        1.4578777179        0.7849020876
 H          3.2913360709        1.5200029145       -0.9798763104
 H          1.9719560567        2.1087177009        0.0588341180
 H          3.8255384883       -1.2512537277       -0.2331139509
 H         -1.7113393288        2.5100081666        0.0640039862
 H         -3.7367451422        4.5068327685       -0.5876664577
 H         -1.8837959275        4.7619812464       -0.4415234745
 H         -0.3295504804       -4.0494267928        0.9178384715
 H         -0.3638148484       -3.9915660838       -0.8648569521
 H         -1.8593455681       -3.7712272368        0.0635656062
 H          2.0733142157       -3.1048803943       -0.1542291350
