25
 energy: -42.174468178921 gnorm: 0.007308860246 xtb: 6.6.1 (8d0f1dd)
C            3.30302697633163        1.11533961421955        0.02359653689491
N            2.31868411469385        0.06781795002202        0.00922554251859
C            2.55036096579350       -1.25118095696274       -0.00512295055508
N            1.36788301706583       -1.92350701752325       -0.01324559535192
C            0.35998383421124       -1.00543555695630       -0.00568138008407
C            0.94860850405668        0.26108779243380        0.01124956792161
C            0.20413943937407        1.46560192605427        0.03946896033365
O            0.60514068415991        2.60909983775592        0.05741114850910
N           -1.24517622278472        1.20237509571408        0.06724984592991
C           -2.01409615183409        2.30106794089936        0.15312552084234
C           -1.75675278648483       -0.04857982626017       -0.03682056254511
O           -3.08350663871016       -0.26904534258979       -0.09056469149695
N           -0.97725513769726       -1.18358191152038       -0.03673870066594
C           -1.55900531096660       -2.51050116263042       -0.06297937293639
H            3.89991686614938        1.06590596693507        0.93520198383112
H            3.96694810541059        1.02436275324485       -0.83650059350992
H            2.78792484798972        2.07388631004381       -0.01473821222028
H            3.51429783923591       -1.71499772616663       -0.00757495473925
H           -1.50650077642438        3.24332824881125        0.17611245380732
H           -3.57846644496854        0.51359308685947       -0.36859479375808
H           -3.07711810778464        2.24023400826141        0.27695063633750
H           -1.30041053706529       -3.05003146334888        0.84937687638874
H           -1.19653183310748       -3.06008479263164       -0.93300718282431
H           -2.63986105766323       -2.42178357783626       -0.12400156012289
H            1.26819732511884       -2.92673265522828       -0.03222690460428
