  25
        -42.11004011
 C          4.4813662405        1.6983255968        0.4713249826
 N          3.6598807735        0.5710647336        0.5319633310
 C          2.1110198127       -1.0153784701       -0.2529918087
 N          0.9122286273       -1.4904946103       -0.2741507454
 C         -0.2469677902       -0.7754100313       -0.1520671051
 C          2.8440151143        0.1261933746       -0.3475209974
 C         -0.3798965873        0.6826798433       -0.1775214240
 O          0.4823045556        1.5228609539       -0.3189893175
 N         -1.7350310492        0.8994456486       -0.0129569829
 C         -2.3576246986        2.2012837088        0.0044098647
 C         -2.4318045790       -0.2813731404        0.1054809911
 O         -3.6040943573       -0.4529287719        0.2563328502
 N         -1.4682725739       -1.3195415683        0.0138549616
 C         -1.8268764104       -2.7072654911        0.1108570717
 H          4.4614225168        2.1841822638        1.4509443659
 H          5.5141477638        1.3710820620        0.2975430586
 H          4.1884104809        2.4188313559       -0.3020046889
 H          2.7805645888        0.6019607731       -1.3370944957
 H         -1.5680929818        2.9494478641        0.0385299016
 H         -2.9619352791        2.3423626931       -0.8930577885
 H         -3.0032627961        2.2897911659        0.8777453691
 H         -1.3269813956       -3.1816688293        0.9577661331
 H         -1.5844234126       -3.2411777563       -0.8101894749
 H         -2.9050482443       -2.7471562941        0.2679984121
 H          0.8022858858       -2.5111614940       -0.3123726385
