25
 energy: -42.132034201670 gnorm: 0.001891352762 xtb: 6.6.1 (8d0f1dd)
C            3.18447213750381        1.20122725000728        0.01955369951067
N            2.20081115839129        0.15638202607758        0.00641681655838
C            2.42332580737127       -1.17939366650138        0.00692144555767
N            1.31720921809406       -1.88647490811248        0.00448036380343
C            0.31126354408512       -0.98603356764549        0.00317871075105
C            0.84851862086563        0.31251104359878        0.00469884366839
C            0.01125098216842        1.48695545909835       -0.00369900663894
O            0.39920567501476        2.63359688764442       -0.01125471408889
N           -1.34248248590437        1.15026935940939       -0.00403913849402
C           -2.30128076669626        2.24114518554055       -0.00788285688313
C           -1.89598081542442       -0.12597247172431       -0.00076123056741
O           -3.08732611358150       -0.29114996254852        0.00006092370900
N           -1.01450266460358       -1.21354386768184        0.00086782678696
C           -1.54147278928015       -2.55577782461489       -0.00050660004718
H            3.73697300580358        1.18843072179753        0.96153115419615
H            3.89211363253993        1.06264272700491       -0.79910352900633
H            2.68441313250385        2.16384685232938       -0.08715647235109
H            3.40623673565515       -1.60931733152674        0.00858793356466
H           -1.74983064976073        3.17984693993256       -0.00332082504803
H           -2.93543004173291        2.17939513943162       -0.89394883568800
H           -2.94561871023229        2.17580167902643        0.87044820591668
H           -1.17713765329185       -3.09619912327009        0.87420996338003
H           -1.20573856481677       -3.08407905900363       -0.89423012224377
H           -2.62851447662277       -2.50023869362751        0.01621733018427
H            2.56995359605074       -4.78563225304084       -0.04009826863086
