  25
        -42.10433057
 C          3.2304912030        1.1253603636        0.0441649417
 N          2.2747190662        0.0511821933        0.0110513276
 C          2.5404991348       -1.2520501578        0.0051195405
 N          1.3844312680       -1.9562876238        0.0004673551
 C          0.3498809066       -1.0693277593        0.0043569808
 C          0.9044073236        0.2043538543        0.0110844786
 C          0.1050914831        1.3920587941        0.0004813137
 O          0.4862648468        2.5409817760       -0.0154372760
 N         -1.2978135862        1.0771273014        0.0077775146
 C         -2.1530079730        2.1089360334        0.0122265363
 C         -1.8656203505       -0.2304625947        0.0188063860
 O         -3.0543444162       -0.3910083192        0.0330019537
 N         -0.9777665123       -1.3040396478        0.0017444030
 C         -1.5103151470       -2.6544065736        0.0087290373
 H          3.6921162550        1.1904249313        1.0308793912
 H          4.0098592036        0.9610897070       -0.6984748273
 H          2.7135207258        2.0616165609       -0.1621295824
 H          3.5201220196       -1.6860772195        0.0034632218
 H         -1.7381218651        3.1001694676        0.0204822126
 H         -2.8743568681        4.3615957178       -2.0576805129
 H         -3.2081250575        1.9098676727        0.0160447185
 H         -1.2229115167       -3.1721052429        0.9243113267
 H         -1.1575564975       -3.2048400107       -0.8629726973
 H         -2.5960832576       -2.5830190879       -0.0308560582
 H          1.3162203450       -2.9637908785       -0.0050903149
