25
 energy: -42.442374109461 xtb: 6.6.1 (8d0f1dd)
C            3.22955793246239        1.15677245134823        0.12591654182532
N            2.31067486337400        0.05729652516464        0.06689683220723
C            2.62435302526535       -1.25251864270904        0.10612674872637
N            1.49124837159012       -1.98490155066596        0.03750870873279
C            0.43113636308598       -1.14428841230603       -0.04650003250452
C            0.92199594781145        0.16706937206697       -0.02940585837645
C            0.09666499559695        1.30322304982547       -0.11372203323530
O            0.44739137013045        2.48402378698234       -0.12519957455858
N           -1.29639314373599        0.95127435048369       -0.18215236820957
C           -2.18848561905074        1.95586068966052       -0.25932723529653
C           -1.79891700099854       -0.35872691247828       -0.21683110043903
O           -2.98833829123581       -0.59242274132070       -0.30452182753735
N           -0.88780662064923       -1.41561882358887       -0.14038834801617
C           -1.37883434505041       -2.77509405124328       -0.16946603584129
H            3.71296597966404        1.20115690190186        1.10434516429755
H            3.99600288015467        1.05142137077736       -0.64381854677343
H            2.66509271567845        2.07535913174169       -0.03655944561322
H            3.61355005129112       -1.64900006212913        0.17568444701672
H           -1.79264404623090        2.95112521902806       -0.27632354772785
H           -3.23138103264416        1.70781044554321       -0.29958711365872
H           -2.96739949884687        4.45115448072614        1.51641859794297
H           -1.06341703278324       -3.31680963585095        0.72464947627890
H           -1.01952753710486       -3.29193195601392       -1.06189340358869
H           -2.46693745235334       -2.72228478340883       -0.19725270937652
H            1.45503088380120       -2.99168262706773        0.04591701377184
