25
 energy: 0.000000000000 xtb: 6.6.1 (8d0f1dd)
C            3.23720163006194        1.16630919979326        0.08434469647475
N            2.29877817382611        0.07527477071623        0.03981603040599
C            2.58028210190900       -1.21425402444508        0.03006176031096
N            1.43813958087363       -1.93419271955128        0.00098261760884
C            0.39035688448383       -1.05887472636071       -0.00790371836672
C            0.93510056364412        0.21347819449412        0.01709077491437
C            0.09450143893243        1.40504303904423       -0.00410947031874
O            0.49712751527797        2.54126714362870       -0.00342325688240
N           -1.25076640035757        1.06271879480407       -0.03085478223738
C           -2.21907211982101        2.15522099834493       -0.05001256985998
C           -1.81739487048744       -0.20012725993278       -0.04692818574614
O           -2.99983886758376       -0.37846417018721       -0.07008878229737
N           -0.92618586207120       -1.30210215599479       -0.03682761578324
C           -1.46982264913417       -2.64643102187190       -0.06029820460571
H            3.71247264356769        1.21471455160235        1.06488849150277
H            4.00791497605742        1.03430808813993       -0.67357694370751
H            2.69910007168542        2.09770118228144       -0.09130154882931
H            3.56654120610678       -1.63682992603973        0.04233140067262
H           -1.67107961066214        3.09322851271934       -0.02552706933167
H           -2.82428953597071        2.09428624779827       -0.95318082946668
H           -2.87644029173232        2.07745725625962        0.81450067533302
H           -1.17061996399332       -3.19584890659852        0.83242232437030
H           -1.14560257411436       -3.17511610292205       -0.95688275822323
H           -2.55549792440841       -2.55659984320617       -0.07459039797972
H            1.38130855184625       -2.94313852034425       -0.01389874181052
25
 energy: -3.655875559705 xtb: 6.6.1 (8d0f1dd)
C            3.24001700525499        1.17433457313487        0.09221507449769
N            2.30501386526362        0.09220495811502        0.04123597366925
C            2.60172751224657       -1.23368414701327        0.04049592159393
N            1.43389232696828       -1.94626549871566        0.00580130242350
C            0.39867489925912       -1.06587289034675       -0.01318221240226
C            0.92635463809351        0.21485870942937        0.00928843631972
C            0.09195322381273        1.38593936063688       -0.02055030150865
O            0.48951637203186        2.55100078562346       -0.02093927563846
N           -1.27416914011443        1.04498513803320       -0.02581880435184
C           -2.22760121633505        2.16177348885350       -0.03006821555719
C           -1.82644951833471       -0.21402914732286       -0.05801864293864
O           -3.02077206199241       -0.40535614350649       -0.09602169532638
N           -0.93087924427484       -1.31339325964145       -0.05035246465355
C           -1.45818152837758       -2.66082148639903       -0.07699652895535
H            3.71757311623285        1.21847016979420        1.07452567192580
H            4.00924398221439        1.04046621678562       -0.66976443842938
H            2.69380726734238        2.09900206772856       -0.08272421982219
H            3.58175611131631       -1.65439590683863        0.06262838828093
H           -1.64712975773485        3.07874782753880       -0.10695443475276
H           -2.89496875442124        2.05400440774177       -0.88451995273130
H           -2.85094549513865        2.29950951814776        0.89238172092150
H           -1.15239644059529       -3.21156258100882        0.81494535218604
H           -1.12381151356734       -3.18957409809109       -0.97207141946304
H           -2.54399252488934       -2.58077452754445       -0.09338900443148
H            1.37398154367531       -2.95053893296248       -0.00511233470859
25
 energy: 5.789018186989 xtb: 6.6.1 (8d0f1dd)
C            3.24081333165470        1.17861438722223        0.10313248310633
N            2.30639858365585        0.10871474123735        0.04195102424384
C            2.62164645045941       -1.25448298955627        0.05850052723914
N            1.42730522348856       -1.95682993323350        0.01467808864511
C            0.40766188978414       -1.07690157025574       -0.02121095100807
C            0.91019638512399        0.21513435304442       -0.00181872930695
C            0.08645943092536        1.35618195777381       -0.03355504737936
O            0.47102767241188        2.54587498672698       -0.04696964969418
N           -1.31410183288587        1.02710438817325       -0.00628174107085
C           -2.23801416135031        2.18003553751852       -0.00095405317502
C           -1.83581050233338       -0.23192193452921       -0.07900090514016
O           -3.03504973594371       -0.44900058894675       -0.14651768781651
N           -0.93635594487562       -1.32740658017073       -0.07401507788924
C           -1.43856003250974       -2.68178184833726       -0.10391968380072
H            3.72368068654258        1.21960535078589        1.08586656627065
H            4.01021761808828        1.04894089170179       -0.66272743793901
H            2.68883964678629        2.09917196795510       -0.06830766416945
H            3.59550856169380       -1.66867783578051        0.09505933346584
H           -1.61266784069883        3.06321980111986       -0.25163991566100
H           -3.01657634416433        1.97804595118825       -0.75998656394775
H           -2.78175911333343        2.63971024995036        1.00792321015807
H           -1.12465209725491       -3.23429780948925        0.78725224837553
H           -1.09056101694424       -3.21123188315804       -0.99631364217039
H           -2.52506649874188       -2.62062431110156       -0.12362407494729
H            1.37163430835760       -2.95816867766689        0.00951323975869
25
 energy: 20.249595389403 xtb: 6.6.1 (8d0f1dd)
C            3.23977967702212        1.17559647960324        0.10850884866960
N            2.30396088580863        0.11048116944865        0.04236096044960
C            2.62816798571276       -1.26920899484930        0.07681697233186
N            1.42483009039331       -1.96600222521794        0.02785777948438
C            0.41156818633807       -1.08856457169728       -0.02739474578902
C            0.89972087107971        0.21043889888457       -0.01133400737435
C            0.08053914353945        1.34104512010959       -0.04270855064758
O            0.45799402929091        2.53780935489707       -0.07643956231726
N           -1.34489732503913        1.02813053967627        0.01573670220211
C           -2.24453024495126        2.21232283622683        0.02822479187081
C           -1.84292282506113       -0.24119331457483       -0.10281382171253
O           -3.04015454869165       -0.48361728225412       -0.20012909610013
N           -0.93809328543522       -1.33639501931455       -0.09706892893439
C           -1.41833912054140       -2.70036731824936       -0.12830847023849
H            3.72774112415858        1.21552496052978        1.08995405515416
H            4.00913043554779        1.05150653993895       -0.65991540237169
H            2.68738958306748        2.09692427019313       -0.05922258852705
H            3.60216067296017       -1.67829076391470        0.13073501688811
H           -1.61668218054911        3.05432954288104       -0.37386771308122
H           -3.12327633862435        1.92805148169409       -0.61689509411551
H           -2.70844481424980        2.90369075206599        1.07735595178790
H           -1.09650046659186       -3.25111465449074        0.76300596343366
H           -1.05750099655718       -3.23056780179998       -1.01688690276560
H           -2.50594316050456       -2.66340995834302       -0.15145089557021
H            1.37651728981380       -2.96809143927124        0.03091263342017
25
 energy: 30.185953401950 xtb: 6.6.1 (8d0f1dd)
C            3.23802778992943        1.16751840332494        0.10726583485781
N            2.30034304273477        0.10113915338718        0.04256587163619
C            2.62473849022780       -1.27642141039150        0.09097651355912
N            1.42648156584881       -1.97245353876010        0.04227760872103
C            0.41174212253462       -1.09890335090483       -0.03014538284722
C            0.89632899370937        0.20195526026745       -0.01800148742660
C            0.07634032235284        1.33643840843458       -0.04739529985118
O            0.44982180648294        2.52589068915307       -0.10479402100439
N           -1.36219805306805        1.03770438264246        0.03429520649653
C           -2.25110494210118        2.23883126620199        0.04741241881343
C           -1.84626557920475       -0.24396798456811       -0.12630290115596
O           -3.03504932360053       -0.50446876288577       -0.25051820371070
N           -0.93655665414565       -1.34049935932512       -0.11451060833695
C           -1.40102221051742       -2.71372752415368       -0.14552237299631
H            3.73076279872635        1.20771730883693        1.08594679017032
H            4.00565036798831        1.04859822365668       -0.66380449782167
H            2.68757769732736        2.09181458855403       -0.05702221354698
H            3.60214122317769       -1.68141947109896        0.16317787787769
H           -1.66565763909193        3.03327864166842       -0.43838125077629
H           -3.17776694787765        1.91748890040933       -0.48823679289669
H           -2.65839993024466        3.09388466191248        1.09936212958786
H           -1.07170975388695       -3.25958499731124        0.74677197311030
H           -1.02964562235966       -3.24332142301565       -1.03063646575307
H           -2.48912336610853       -2.70127966432152       -0.17149585496948
H            1.38675846910282       -2.97718379954089        0.05374902441053
25
 energy: 34.661183834960 xtb: 6.6.1 (8d0f1dd)
C            3.23618298822852        1.15954036011554        0.10906905387560
N            2.29787856165676        0.08843885946626        0.04748635958993
C            2.61519076192807       -1.27220347604778        0.09649331566513
N            1.43094304094888       -1.97302946329323        0.04866883093315
C            0.40850435753398       -1.10370857352701       -0.02757280410397
C            0.89953131913917        0.19477260058415       -0.01805996794427
C            0.07624416148311        1.34031651549320       -0.04926295052693
O            0.44680044300887        2.51690235021915       -0.12278533740459
N           -1.36044211621754        1.04530668476818        0.04647623197424
C           -2.25472840110463        2.24489894852488        0.05537116777745
C           -1.84666609227391       -0.24180565061481       -0.13114342344238
O           -3.02507406260322       -0.50509321499229       -0.27972296351790
N           -0.93395000752007       -1.33947394037679       -0.11930162076213
C           -1.39423220769650       -2.71693960975799       -0.15785498100184
H            3.73029788355132        1.19706575298495        1.08579821822541
H            4.00125517656183        1.04362130767761       -0.66399478219216
H            2.68762700243119        2.08628380220796       -0.05181055596963
H            3.59592911520430       -1.67483215122268        0.18168149624739
H           -1.72090337992061        2.99978454687958       -0.51816078322437
H           -3.20829149267585        1.89474770887146       -0.37494381511025
H           -2.60832800880366        3.20284012352227        1.10624848208287
H           -1.06134117352317       -3.26079397475796        0.73357739582312
H           -1.01697841521955       -3.23974499315391       -1.04385129468461
H           -2.48116657033727       -2.71810559581390       -0.18595663156604
H            1.39793178415613       -2.97976031558458        0.06058525540409
25
 energy: 33.178301613115 xtb: 6.6.1 (8d0f1dd)
C            3.23649456112387        1.15510325683532        0.11096908312728
N            2.29834519866283        0.08066150871350        0.05255203152094
C            2.60797274731395       -1.26419777988517        0.09778235442694
N            1.43355345807571       -1.97019344542650        0.05034315781820
C            0.40519000978469       -1.10221557597286       -0.02270779859330
C            0.90433559152665        0.19338411631914       -0.01467443767506
C            0.08054008298305        1.34592484736667       -0.04819096201542
O            0.45072334136681        2.51527264136502       -0.13353287554178
N           -1.34719885228432        1.04951527217357        0.04633658177364
C           -2.25065574447362        2.24083879587862        0.05423086984563
C           -1.84486594950638       -0.23685567699236       -0.13221622840310
O           -3.01749687508604       -0.49416453780635       -0.29261593678510
N           -0.93272821088505       -1.33571855769817       -0.11688619750953
C           -1.39619000680608       -2.71343930495253       -0.16179362047862
H            3.72997755448147        1.19071958929938        1.08713966533597
H            4.00015495122978        1.03888523944685       -0.66244746865947
H            2.68828832016787        2.08202903244210       -0.04883964599744
H            3.58927563997909       -1.66834087588264        0.18781494144569
H           -1.76975447865755        2.97752996394992       -0.56351013399114
H           -3.22087130176977        1.87216825652548       -0.30009323634668
H           -2.57028865049536        3.21548680138709        1.09225785953597
H           -1.06440349606241       -3.25885332427175        0.72826230597792
H           -1.01747641697115       -3.23130233146271       -1.04937699247051
H           -2.48208806349382       -2.71574963815535       -0.19207581785856
H            1.40138125773188       -2.97745967102406        0.05830639766488
25
 energy: 29.371641762686 xtb: 6.6.1 (8d0f1dd)
C            3.23758284393337        1.15443328599905        0.11320619162866
N            2.29982451542073        0.07911223920419        0.05567863407703
C            2.60547609366366       -1.25944575621146        0.09770946493765
N            1.43347247298370       -1.96791367261334        0.04929187503836
C            0.40339452575145       -1.09829772214378       -0.01919491275147
C            0.90671960803243        0.19600697050123       -0.01113822352563
C            0.08306886153909        1.35032601337270       -0.04487336139598
O            0.45444824036353        2.51931089306077       -0.13557425487413
N           -1.33684391367008        1.05208792410972        0.04810259215923
C           -2.24685646457239        2.23742893560054        0.05695307700474
C           -1.84393811384293       -0.23197088000948       -0.12970185846889
O           -3.01589894386586       -0.48384922980061       -0.29552018034320
N           -0.93321797425221       -1.33190624072604       -0.11374924331097
C           -1.40008950648556       -2.70862157797802       -0.16379616570130
H            3.73010368752810        1.18857328397067        1.08975049813975
H            4.00114441688850        1.03681957058007       -0.65967964197031
H            2.68903036775122        2.08066388664241       -0.04657586288333
H            3.58552317977813       -1.66744171363099        0.18810466926590
H           -1.79829041621713        2.96743316151352       -0.61230878316530
H           -3.22150365982614        1.84756954228102       -0.24908445465411
H           -2.54149088992055        3.19224789763503        1.07962659088542
H           -1.07020207615997       -3.25715652859352        0.72479120817678
H           -1.02170682018623       -3.22394030449959       -1.05282271475821
H           -2.48587597386112       -2.70762439737041       -0.19524290174915
H            1.39834060716238       -2.97481697872140        0.05308165438576
25
 energy: 22.394416822685 xtb: 6.6.1 (8d0f1dd)
C            3.23890645337042        1.15513335218771        0.11279020530877
N            2.30136034630608        0.07980307172119        0.05683323992177
C            2.60433686501682       -1.25621579563016        0.09865796980454
N            1.43139694492171       -1.96558237277509        0.04967294780889
C            0.40187467804430       -1.09247168623483       -0.01692714115222
C            0.90787875652732        0.20068337631491       -0.00952706342547
C            0.08405512911784        1.35433191868214       -0.04356841669125
O            0.45794887068948        2.52452462370532       -0.13509895165661
N           -1.32709971048637        1.05602193635615        0.04340923783747
C           -2.24235201507621        2.23898782716503        0.05561588235223
C           -1.84302925713624       -0.22522767996270       -0.13350424689713
O           -3.01610433660728       -0.47156416190478       -0.29769795833902
N           -0.93475534141697       -1.32702254707100       -0.11158327880976
C           -1.40423601090175       -2.70278988527892       -0.16191919657146
H            3.73082772310691        1.19003230418927        1.08978888940688
H            4.00309664099783        1.03497799326826       -0.65893543359791
H            2.68992666494083        2.08029468759724       -0.04870638458490
H            3.58200021550866       -1.67035746854973        0.18890529376286
H           -1.82863023045116        2.95361729110308       -0.62202604436904
H           -3.21046639080120        1.84169670412662       -0.20760432418647
H           -2.51195888892866        3.13197056830127        1.04551880792973
H           -1.07626254340025       -3.25302906560938        0.72642138238814
H           -1.02660798435889       -3.21907137977314       -1.05075487863464
H           -2.49050598861168       -2.69780883866304       -0.19437858091923
H            1.39061407756455       -2.97190617109320        0.05165193946115
25
 energy: 17.767359194951 xtb: 6.6.1 (8d0f1dd)
C            3.24052064647112        1.15626099289474        0.11564126864698
N            2.30296860729904        0.08265858524166        0.05725411339681
C            2.60695484889242       -1.25903989979542        0.09942744133559
N            1.42879191578757       -1.96585502892018        0.04870837892225
C            0.40303746202892       -1.08915371146149       -0.01836687793736
C            0.90809062925558        0.20375661999699       -0.01026934369509
C            0.08498969303594        1.35577722722892       -0.04574895997832
O            0.46163127554059        2.52891046112474       -0.12928946531966
N           -1.32400312680359        1.05987557510192        0.04161166378168
C           -2.24227078954806        2.24605326526261        0.05679566060677
C           -1.84123000352915       -0.21948181695110       -0.13440566797897
O           -3.01738878300774       -0.46407534424265       -0.29312467442334
N           -0.93566562665103       -1.32350476787531       -0.11254079233300
C           -1.40625039458261       -2.69812687854307       -0.16283218980299
H            3.73140275413210        1.19084136930684        1.09362993153561
H            4.00593056304258        1.03533829916223       -0.65512634952661
H            2.69135508971181        2.08106944871967       -0.04656144468709
H            3.58233495509377       -1.67673888697401        0.18936099701121
H           -1.84468863587861        2.95162370076551       -0.65218889000028
H           -3.22784482417636        1.82266405742724       -0.17546530150533
H           -2.47822868905929        3.09785588455060        1.03136269636843
H           -1.07960946668355       -3.24971254913866        0.72547755890802
H           -1.02925741424941       -3.21567115314478       -1.05154414543527
H           -2.49289713477624       -2.69085221669440       -0.19562274458940
H            1.38354111659030       -2.97144463087033        0.05085103284666
25
 energy: 15.957423658088 xtb: 6.6.1 (8d0f1dd)
C            3.24003578514648        1.15766349047433        0.11548052186896
N            2.30176409159582        0.08584095541431        0.05478715328836
C            2.60928848045001       -1.26294853627683        0.09762402209781
N            1.42658630309286       -1.96676720745323        0.04709340117543
C            0.40418364425528       -1.08936727154465       -0.02116653428373
C            0.90584986833416        0.20380206412050       -0.01083436340401
C            0.08108122326694        1.35380876047358       -0.04285188139573
O            0.45844595125376        2.52882344707886       -0.11775309302969
N           -1.33039759747148        1.05982079832420        0.04911439732241
C           -2.24806697404160        2.25316640607772        0.06321942734402
C           -1.84165491220397       -0.21950582483669       -0.13036151351222
O           -3.02037918598272       -0.46685262558221       -0.28286658868520
N           -0.93634667116998       -1.32379963122228       -0.11367658668592
C           -1.40512121300830       -2.69819548042428       -0.16309666953602
H            3.73175359928235        1.19210662973946        1.09342059780803
H            4.00585013491389        1.03792129662867       -0.65562268057461
H            2.69146879085144        2.08328465064332       -0.04590702631902
H            3.58408645397020       -1.67999628159539        0.18654141574590
H           -1.84052216902106        2.95062463174310       -0.66234703022332
H           -3.21484810991731        1.82881477770456       -0.18477450469300
H           -2.47357876500183        3.09074993784196        1.02051018216829
H           -1.07759902766202       -3.24939638744860        0.72539367186147
H           -1.02839932593630       -3.21645770049155       -1.05179589743460
H           -2.49199084995559       -2.69192785356241       -0.19466085314787
H            1.38072514289505       -2.97218444365418        0.05156432839162
25
 energy: 16.690850877258 xtb: 6.6.1 (8d0f1dd)
C            3.23930596414406        1.15764170155076        0.11534023582988
N            2.30027328830023        0.08673817562473        0.05310478705310
C            2.61015677251288       -1.26520947067856        0.09637222553477
N            1.42622196875599       -1.96753368455289        0.04687247509266
C            0.40488100318807       -1.09148461544226       -0.02324477553368
C            0.90482607791848        0.20176965839245       -0.01177444936011
C            0.07913896013548        1.35179548285535       -0.04235146023673
O            0.45559999868536        2.52673100601151       -0.11379289501394
N           -1.33544439261193        1.05821805803111        0.05101094275526
C           -2.25206512289592        2.25720029441753        0.06466171509657
C           -1.84179419910859       -0.22128852561761       -0.12865763234021
O           -3.02135535514728       -0.47119116131982       -0.27833408879528
N           -0.93615423552465       -1.32514828516145       -0.11495005524744
C           -1.40350475980869       -2.69974261457989       -0.16305377014827
H            3.73145881049122        1.19173641425477        1.09304627662115
H            4.00501860787350        1.03927019765481       -0.65627197386746
H            2.69159135437967        2.08429247873979       -0.04507485087154
H            3.58586562218555       -1.67895071176158        0.18577037424245
H           -1.83097013038346        2.94746351544909       -0.65091926653302
H           -3.22025809144992        1.83880733965752       -0.20104937097444
H           -2.47190777980145        3.10478953094473        1.01627281138099
H           -1.07518109730340       -3.24962990511285        0.72597752444801
H           -1.02614084200757       -3.21828279193904       -1.05135949702313
H           -2.49019510824696       -2.69573464509043       -0.19423203304501
H            1.38284735365542       -2.97322884015547        0.05367064708276
25
 energy: 15.603725902748 xtb: 6.6.1 (8d0f1dd)
C            3.23885720096636        1.15713652474616        0.11529721071488
N            2.29915168269889        0.08659499209633        0.05244125503002
C            2.60936801412062       -1.26484921864834        0.09493506807824
N            1.42603798808977       -1.96725742387775        0.04662698916401
C            0.40422354764177       -1.09193243795792       -0.02358122684183
C            0.90493188819923        0.20085934889891       -0.01140329451041
C            0.07849767793433        1.35211452822776       -0.04016729352134
O            0.45461890116639        2.52623240269395       -0.11200926621974
N           -1.33540183156154        1.05757883833217        0.05376029924172
C           -2.25380383187322        2.25985207173820        0.06882414986031
C           -1.84191333993467       -0.22104832513515       -0.12640141746878
O           -3.02165599186663       -0.47070429535274       -0.27499470696934
N           -0.93634246316491       -1.32493302526949       -0.11481567388321
C           -1.40350602823566       -2.69973541254260       -0.16308259341143
H            3.73100097980531        1.19036950404791        1.09287588633706
H            4.00423774988364        1.03903864922299       -0.65656926259170
H            2.69192240680818        2.08445317237238       -0.04444523889684
H            3.58598806703798       -1.67648056083381        0.18569883284851
H           -1.83139234098740        2.94182271802889       -0.65103536241820
H           -3.22432387199557        1.84480597784727       -0.20347368486806
H           -2.46237709339664        3.10240736445634        1.00444379306600
H           -1.07509482546312       -3.24947620798226        0.72595833858863
H           -1.02537619651651       -3.21779437061168       -1.05125287861659
H           -2.49002554658028       -2.69681546659940       -0.19467533727418
H            1.38459192515980       -2.97321074572588        0.05407931070960
25
 energy: 15.850118454047 xtb: 6.6.1 (8d0f1dd)
C            3.23833560381766        1.15661256776702        0.11501648534295
N            2.29835774912959        0.08574985056904        0.05263473963815
C            2.60788675194886       -1.26309056078002        0.09401497094148
N            1.42658115752261       -1.96675477108041        0.04670706650305
C            0.40305391405802       -1.09235942871740       -0.02242278406847
C            0.90505152147366        0.20036110072135       -0.01053436799234
C            0.07839141903764        1.35254509062378       -0.03779352922554
O            0.45369772308768        2.52557448022994       -0.11430639627099
N           -1.33482157382855        1.05612720761092        0.05775360056196
C           -2.25393926350958        2.25848762428431        0.07296479413233
C           -1.84287820601154       -0.22190951307165       -0.12464375072972
O           -3.02156497008954       -0.47121527283348       -0.27597487356812
N           -0.93650637113330       -1.32526268633277       -0.11423331108725
C           -1.40354708835406       -2.70050100879729       -0.16349453166095
H            3.73059731875304        1.18913532773141        1.09236621409188
H            4.00317145726292        1.03837094518827       -0.65713210382421
H            2.69170119490030        2.08410732558077       -0.04431910961273
H            3.58548946959637       -1.67302863188788        0.18650363914249
H           -1.83052359074303        2.93749960841615       -0.65184820340469
H           -3.22542192786616        1.84752103992332       -0.20779982488432
H           -2.45854960538441        3.10998482804477        1.00261391424077
H           -1.07508583670069       -3.25048180431212        0.72530275006038
H           -1.02471814614510       -3.21750093970495       -1.05183217010575
H           -2.48988948720087       -2.69799883216660       -0.19562687236591
H            1.38734545431458       -2.97294494483426        0.05311755029291
25
 energy: 15.354070557201 xtb: 6.6.1 (8d0f1dd)
C            3.23845331431712        1.15670490189881        0.11482568119084
N            2.29861939909243        0.08560385017356        0.05306623331942
C            2.60750247386359       -1.26236895945051        0.09409622714501
N            1.42646613659409       -1.96645489134725        0.04700370330614
C            0.40262897762306       -1.09165385387791       -0.02145346779166
C            0.90506902114015        0.20110506447369       -0.01028114007723
C            0.07855697388261        1.35306599120570       -0.03783041618024
O            0.45397834590077        2.52608786143474       -0.11611932709287
N           -1.33394314274123        1.05626326155536        0.05894695419941
C           -2.25296884424488        2.25781591701496        0.07462299455234
C           -1.84330574300990       -0.22139685233207       -0.12486474136552
O           -3.02156134167236       -0.47020266125323       -0.27775392878945
N           -0.93671093648011       -1.32484523667566       -0.11389366443887
C           -1.40392780044982       -2.70012102901898       -0.16349452585975
H            3.73072426970902        1.18942381154288        1.09218682641790
H            4.00327913148590        1.03799813307481       -0.65722572425078
H            2.69158855636083        2.08389989078519       -0.04482435955048
H            3.58483188007295       -1.67304370131456        0.18739491433622
H           -1.83235049718314        2.93683972188902       -0.65268746290720
H           -3.22443927574592        1.84617334726697       -0.20638615252667
H           -2.45601373762451        3.10515386050323        1.00176982646941
H           -1.07565437179219       -3.25039082472459        0.72519143300660
H           -1.02515693038035       -3.21702397850086       -1.05190157142450
H           -2.49032155534567       -2.69703865205001       -0.19577029386245
H            1.38687036456367       -2.97256637010104        0.05241587832168
25
 energy: 15.374989260000 xtb: 6.6.1 (8d0f1dd)
C            3.23852939140959        1.15695339798969        0.11456262914208
N            2.29903169213851        0.08550132544841        0.05349246569016
C            2.60748541349304       -1.26210407935212        0.09403974540866
N            1.42644970730997       -1.96639165947381        0.04745413405108
C            0.40257952073902       -1.09125790672412       -0.02054710750171
C            0.90488005511833        0.20170747403957       -0.01011423222505
C            0.07852926960104        1.35303246410992       -0.03830686791780
O            0.45376622129771        2.52623026422787       -0.11805347561155
N           -1.33404310595918        1.05620602085555        0.06002797558397
C           -2.25207096197913        2.25678671388123        0.07557586074661
C           -1.84369048815323       -0.22129446444779       -0.12559510320936
O           -3.02136391080869       -0.47012378922014       -0.28048124278864
N           -0.93670793693628       -1.32481876840930       -0.11372815716980
C           -1.40394767948459       -2.70008911880775       -0.16342676633220
H            3.73092631629280        1.19013809299360        1.09190695856822
H            4.00341301009537        1.03806196503237       -0.65742955968603
H            2.69127724885878        2.08380784265501       -0.04538569968695
H            3.58434324065730       -1.67375262807653        0.18834349357382
H           -1.83210464441684        2.93707249807067       -0.65164540909257
H           -3.22345794895192        1.84576270536518       -0.20732966283388
H           -2.45636499858921        3.10416134466992        1.00408659767585
H           -1.07565528534387       -3.25047397971644        0.72517504296750
H           -1.02543263298791       -3.21705329409655       -1.05191120066336
H           -2.49042321619500       -2.69662009332210       -0.19561484974058
H            1.38626639073047       -2.97241372552008        0.05193832719884
