  25
        -42.15899696
 C          2.7085412430        1.3368804408       -0.5775985650
 N          2.0818102334        0.0710587690       -0.3092720404
 C          2.6646332846       -1.1139462522       -0.3712810594
 N          1.7673809493       -2.0602269946       -0.0630394835
 C          0.5652221707       -1.4644233218        0.2339177917
 C          0.7587582973       -0.0949469151        0.0410293137
 C         -0.0784667119        1.0920621015        0.3739693833
 O          0.3895621018        1.9716635750        1.0576354974
 N         -1.3714220596        1.1484898089       -0.1015747385
 C         -2.1612883098        2.2987055877        0.3243229008
 C         -1.9349631288        0.2579709198       -1.0005249237
 O         -3.0718433823        0.3081754853       -1.3674172331
 N         -0.5350317410       -2.2088853279        0.4484054431
 C         -1.4113352628       -2.1039136236        1.3493554875
 H          2.6873214855        1.9590963071        0.3196760049
 H          3.7388931490        1.1753859148       -0.8888967069
 H          2.1711052491        1.8641641116       -1.3678108418
 H          3.6907942375       -1.2945779251       -0.6268941255
 H         -1.6030932403        3.2135931291        0.1210952966
 H         -3.0974109462        2.2921104378       -0.2316606205
 H         -2.3630556868        2.2433931913        1.3935066991
 H         -1.3349946521       -1.4305537385        2.2013656140
 H         -2.2656647992       -2.7612428071        1.2857054252
 H         -1.2214051670       -0.4997103985       -1.3599545613
 H          1.9373410870       -3.0557245886       -0.0217432304
