25
 energy: 37.597167283477 xtb: 6.6.1 (8d0f1dd)
C            3.59418920889539        1.74930159409626        0.09826954995596
N            2.82502135465664        0.53001782207731        0.05991488268347
C            3.28621555725735       -0.71300142994123        0.07137745371086
N            2.25963548322132       -1.58810104883948        0.03326759893455
C            1.07701673893407       -0.87044757846590       -0.00401679133069
C            1.45926987409171        0.47971323052950        0.00733803553030
C            0.44960339926309        1.50825808011098       -0.01512629003125
O            0.67109014136149        2.71208397034116       -0.00951260455485
N           -0.81065015974159        0.95452180660125       -0.03919655826295
C           -1.94811343027863        1.85358314738295       -0.04489411901921
C           -1.14363017808757       -0.43910708556313       -0.05076836126362
O           -2.31616844074203       -0.73484957902934       -0.07286944325160
N           -0.13447628194329       -1.34746611413200       -0.03552434610028
C           -4.18789697366049       -3.76367278209112       -0.13284133234391
H            4.25062329266273        1.75853233383625        0.96475890441389
H            4.20693302198665        1.83456846558019       -0.79692296838621
H            2.90765130772533        2.59591196219223        0.14803244766034
H            4.31924556760432       -0.99446417986902        0.10356115880165
H           -1.56773617193195        2.86913267771888       -0.01335843270540
H           -2.54087897481282        1.69595533849620       -0.94573255127039
H           -2.58048957397683        1.64676555832542        0.81832913635169
H           -4.42755088823218       -4.24255347093587        0.79001503635394
H           -4.41534965379059       -4.27251218868451       -1.04472217396625
H           -3.74268314617036       -2.80063797996512       -0.13204935785094
H            2.32949007097746       -2.59562879658791        0.04474252805924
