25
 energy: 34.201160980460 xtb: 6.6.1 (8d0f1dd)
C            3.27095576950419        1.36229162203404        0.14061116453433
N            2.45023919462880        0.14263510288027        0.02480076151176
C            2.79288528054479       -1.22007472197335        0.03400005334746
N            1.62829996272900       -1.96444703823407        0.01251961530789
C            0.50751193320330       -1.19611913314861       -0.02451638744453
C            1.02974143055597        0.13847610310242       -0.02154555362616
C            0.22006223912950        1.29022302054537       -0.06677752472624
O            0.53014069359468        2.48994463465790       -0.08695413392067
N           -1.15002389694524        0.92703569876584       -0.06864239934038
C           -2.14368785142911        1.98555837235166       -0.04974245855717
C           -1.69501161829479       -0.29435546505507       -0.07397888071906
O           -2.92347004248586       -0.31112376475698       -0.08164275712882
N           -0.92275997957849       -1.50407592008336       -0.06519507552776
C           -2.03425466200520       -2.62100868035555       -0.06532427166912
H            3.92807550687730        1.39993674482037        1.02346239545734
H            3.92509803020698        1.53884122862893       -0.72591144611991
H            2.58954332665699        2.22730367030834        0.24483918409338
H            3.77324585910437       -1.65988383764822        0.07546205175610
H           -1.53829235196286        2.89956591829950       -0.02800915338152
H           -2.78295305097972        1.88274032668396       -0.93275725036733
H           -2.78946812077432        1.84625190254607        0.82494473532315
H           -2.08098183466271       -3.22845086591038        0.82789857104801
H           -2.06620711080813       -3.20989240398258       -0.97143212449204
H           -2.93360121480851       -2.02147184507857       -0.06258886004833
H            1.60027922361307       -2.96991866712819        0.03205444242235
