25
 energy: 52.565990419913 xtb: 6.6.1 (8d0f1dd)
C            3.34275891934487        1.61981917113213        0.15821892783078
N            2.64740402611915        0.33234480846601        0.00928924381840
C            3.06203320180904       -0.94134110196368        0.06145689039180
N            2.01420225850057       -1.81585214542825        0.03164528892981
C            0.83556190343240       -1.08392862971291       -0.05027300846189
C            1.28532360521968        0.25385188997171       -0.09045585862187
C            0.36498180323692        1.34095435532034       -0.15949088342228
O            0.68529015460351        2.52098868056738       -0.22880758369402
N           -0.92308449038240        0.88066700030814       -0.12689685387231
C           -2.02813605317794        1.82919568693816       -0.05188440884150
C           -1.36036285282218       -0.46437142135741       -0.06735786823647
O           -2.56955909213110       -0.52382771262766       -0.00622856298421
N           -0.42880188535484       -1.49473601737119       -0.06151980266243
C           -3.38221771814801       -3.16389677542822       -0.09348781612457
H            4.24284342844818        1.50698847143325        0.75032535491144
H            3.58660144419132        2.13676017906685       -0.77579169032265
H            2.70688620504043        2.35059200039169        0.65383721747841
H            4.06760331975087       -1.28750424231436        0.15476573965954
H           -1.65217117778895        2.85212169988215       -0.01407302789919
H           -2.68126030267255        1.68605282916758       -0.91294307846908
H           -2.63696418902630        1.59219210743883        0.82962375413112
H           -3.40451261147581       -3.67366274976828        0.82815431904373
H           -3.36276883891385       -3.71655687515835       -0.98838987383897
H           -3.60735604120895       -2.12176301617657       -0.11858535345686
H            2.06045373271496       -2.83402287924482        0.10186124224305
