25
 energy: -42.163110658846 gnorm: 0.007478794609 xtb: 6.6.1 (8d0f1dd)
C            3.22932423022458        1.08763517472288       -0.08386726306957
N            2.29868761596750       -0.00515100969280       -0.03682456721160
C            2.56952612483274       -1.30580923731975       -0.02801654104397
N            1.41636968452173       -2.01957565875986        0.02387525495879
C            0.38185140488824       -1.13908124614183        0.05102349892522
C            0.92970695271788        0.14844471762279        0.01073276203864
C            0.12951984493349        1.30228937660832       -0.01618691497018
O           -1.53746542299929        3.26705146010231       -0.58523518077454
N           -1.17949164243716        1.02597201922208        0.03974625913923
C           -2.10431535325913        2.18640329277609        0.03031849059481
C           -1.80230820800211       -0.22269026854406        0.10601529389269
O           -2.99164723424539       -0.35835413228933        0.15942310058942
N           -0.94307825454743       -1.34232143451558        0.09659529979306
C           -1.52393426000152       -2.67097485069449        0.10966234984559
H            3.63196427357174        1.29105717080409        0.91032598825285
H            4.05411351236721        0.85816705320615       -0.75724942367148
H            2.69822718756330        1.97162759841372       -0.43261469065279
H            3.54909361537228       -1.74055625580714       -0.05702159266080
H           -2.37163496426876        2.39574998850803        1.08344963937899
H           -0.56955541844627        3.21397692251640       -0.47136234339918
H           -3.01812500717918        1.89367982262781       -0.50060543030273
H           -1.22717979917742       -3.20777746456118        1.01098733964056
H           -1.21819936426319       -3.22641297655191       -0.77726157879118
H           -2.60719851517064       -2.55607421993737        0.10426098293815
H            1.36618051113691       -3.02903730071438        0.04100088446106
