  25
        -42.07675014
 C          3.0774748214       -0.1555286919       -1.1563020919
 N          2.3393798388        0.2896721925        0.0164073031
 C          2.8967206042        0.9653625202        0.9220154211
 N          0.9989986068       -2.3560737670        0.0621298449
 C          0.3697459979       -1.2397935056       -0.0038383851
 C          0.9352895308        0.0706423592        0.0414258721
 C          0.1174307299        1.2466233179        0.2269707979
 O          0.5890692027        2.3413541486        0.4747517920
 N         -1.2405313591        1.0409349174        0.0656627349
 C         -2.1271021261        2.1855024794        0.1088087571
 C         -1.8396851467       -0.1991378831       -0.1076062914
 O         -3.0323375814       -0.2992565218       -0.2361801188
 N         -1.0045237483       -1.3036671159       -0.0978475723
 C         -1.6116078096       -2.6130931495       -0.1810326720
 H          4.1378668523       -0.2177344061       -0.9185331241
 H          2.7089540413       -1.1159144056       -1.5096457920
 H          2.9406139142        0.5799040912       -1.9527661786
 H          2.4777536371        1.4292434438        1.7950340173
 H         -1.5230174311        3.0861748954        0.2021755536
 H         -2.7297250579        2.2178623146       -0.8008430216
 H         -2.8100465928        2.1007444450        0.9568559498
 H         -1.2701894149       -3.2284031192        0.6529907078
 H         -1.3119592978       -3.1073565691       -1.1072178596
 H         -2.6940082425       -2.4977743905       -0.1562249938
 H          1.9967522319       -2.4002929905        0.1892699245
