25
 energy: 39.492370266810 xtb: 6.6.1 (8d0f1dd)
C            3.04739949915162        2.72495536180123        0.47806225947316
N            2.41076033149593       -0.47547933877931       -0.33995042311639
C            2.51961491746829       -1.71333959522192        0.02569665398475
N            1.30064868163845       -2.36197442995215        0.12489575390462
C            0.36396983921037       -1.42418311164582       -0.16906853520996
C            1.05978669927900       -0.26584809321129       -0.47177748182652
C            0.32605723654597        0.94686844336652       -0.70884778839087
O            0.73784384284600        1.98246775086938       -1.14289526723823
N           -1.00587762279460        0.86795418939867       -0.23000121429112
C           -1.67682231019587        2.09339613477840        0.17471407594907
C           -1.69603070921442       -0.28014132514970        0.01328708016741
O           -2.87394318682952       -0.27397636219208        0.29330985150806
N           -0.99350391867956       -1.48510474260063       -0.11287813609929
C           -1.80016846302156       -2.68835039754445       -0.19173852106967
H            3.95443565848952        2.75639519626667        1.02035188681206
H            2.96640838354327        2.94181426234866       -0.54731875182113
H            2.12977640740470        2.48594681533486        0.97464276539307
H            3.43756131081484       -2.21089063268526        0.26631422128591
H           -0.98147389318663        2.87593006451760       -0.06492971550895
H           -2.60336798890407        2.29606935636498       -0.33995248442229
H           -1.84450021863682        2.06370183595308        1.25768795556866
H           -1.91056266302108       -3.25930405356244        0.74078751987084
H           -1.47885246606296       -3.36035937531858       -0.98936921210190
H           -2.79834130720295       -2.33252904198772       -0.43634509821568
H            1.13695033826201       -3.32913080491750        0.33600862695137
