25
 energy: 0.475149450721 xtb: 6.6.1 (8d0f1dd)
C            3.15349905686424        1.32100194654775        0.09461510034281
N            2.38120675988782        0.07334500779142        0.04434609536541
C            2.64483849741013       -1.30721159697721        0.04341216248502
N            1.43690323123723       -2.00559626505276        0.01762469055237
C            0.42311181798370       -1.12601133875426       -0.00768671911185
C            0.97922279960438        0.13925029816714        0.00289521597813
C            0.16786967783952        1.27304893053524       -0.05770666514449
O            0.55375966509706        2.43339353478009       -0.18392279366762
N           -1.23649265434964        0.98796740133656       -0.03435110322960
C           -2.13389157594081        2.12708239107255       -0.04077400885793
C           -1.80861177752544       -0.24049740531938       -0.05229644867306
O           -3.00885532898960       -0.42506754134465       -0.07430409274967
N           -0.92984143934763       -1.34244048417416       -0.04450490849574
C           -1.53438579078108       -2.65217236168416       -0.06612203005486
H            3.68851477315939        1.48391015412410        1.04345945544313
H            3.92313401429837        1.37952798335197       -0.69507473193264
H            2.44289106106259        2.14356473937267       -0.02082721091381
H            3.59132527818326       -1.79057579775438        0.05112765296245
H           -1.55423807220941        3.04039972322580       -0.02768086395363
H           -2.72772996038158        2.13217050366036       -0.94411275890703
H           -2.74744885483273        2.11979592941234        0.85127303579985
H           -1.27874030167921       -3.21935303194334        0.83057921807527
H           -1.25048137506653       -3.21082131505143       -0.95961725761068
H           -2.61275830800102       -2.48289842181311       -0.08715485326891
H            1.30192608952899       -3.00593521839692        0.01425077809999
