25
 energy: 29.914686364525 xtb: 6.6.1 (8d0f1dd)
C            3.62733006946223        3.72748267671963        0.21838005503214
N            2.30543745512002       -0.89614401907110       -0.02336672151437
C            2.31418243628338       -2.18601071939971       -0.07841166304210
N            1.04632794174241       -2.72290189657599       -0.11844895389488
C            0.19882930863971       -1.66244724929153       -0.08542426244604
C            0.99142347560821       -0.52481115835713       -0.02445225853038
C            0.40348924836212        0.79090335239923        0.02932009481350
O            0.97779359398082        1.85200413822637        0.08145120421191
N           -1.00199514852400        0.72463609292621        0.01544714942720
C           -1.73481006898097        1.98247675692168        0.06915053804698
C           -1.79572338956654       -0.39992459825092       -0.04225438415656
O           -3.00374010823990       -0.33151298635329       -0.04437449977023
N           -1.15555757705367       -1.63881467306354       -0.10057426779530
C           -1.94568158188697       -2.84889419874499       -0.16769667665941
H            3.96142618656119        4.11098144226827        1.15965828322672
H            4.19099226589992        3.93932168340528       -0.66602784864269
H            2.74521248407949        3.12538084652936        0.16419081018360
H            3.19864306726223       -2.78985791939126       -0.08916856432466
H           -1.01225020481191        2.79558711898541        0.06636736148419
H           -2.39694275920036        2.05822620377328       -0.79268319194384
H           -2.34198468860033        2.01996020931838        0.97346013044361
H           -1.76930281582790       -3.47006078607604        0.71247016298028
H           -1.70726134384900       -3.41252476257124       -1.07152219440836
H           -2.99386300487953       -2.55348293832862       -0.19385283160047
H            0.81023946339648       -3.70054382725836       -0.16460355891479
