25
 energy: 43.025323268240 xtb: 6.6.1 (8d0f1dd)
C            2.93544534872958        2.24451835685981        0.43325877152860
N            2.37997421696225       -0.23691346723083       -0.27518346656352
C            2.58648457775823       -1.46660212649902        0.08405918692180
N            1.41877386968116       -2.19666928766212        0.20325103989594
C            0.40778870125349       -1.34050804953339       -0.10446875725764
C            1.02622638636947       -0.12507229912057       -0.38322753294118
C            0.25929165529050        1.04210765058044       -0.71003636634571
O            0.60087865986115        2.00282667188343       -1.34895184729367
N           -1.04637543809150        0.87687313785781       -0.17840134036757
C           -1.80014985970408        2.09180221002358        0.08223955705392
C           -1.70443782444706       -0.31379905936212       -0.03623168721474
O           -2.89680383046700       -0.34808911118250        0.17679731700357
N           -0.95505858962017       -1.51088847722858       -0.12344014129610
C           -1.79766083234976       -2.70443738589817       -0.13650763448568
H            3.86237279381091        2.15211003427707        0.93688952389444
H            2.94327172310034        2.32467951859475       -0.63536795447704
H            2.00916596686578        2.26037669323402        0.91882699253364
H            3.54149859350404       -1.90268116866623        0.29462239544227
H           -1.14823305349673        2.92861135048414       -0.05440132821402
H           -2.63365010492994        2.22616255435728       -0.56398040816026
H           -2.12841610967052        2.12470619041244        1.12439105444906
H           -1.72182915863953       -3.29501161917899        0.78644674168392
H           -1.65634959052915       -3.36283848561971       -0.99530468148098
H           -2.80871730441154       -2.28343280791609       -0.25850026660440
H            1.39108758830754       -3.18530757423227        0.37596761858504
