25
 energy: 40.380222943858 xtb: 6.6.1 (8d0f1dd)
C            2.98612242396546        2.60163472494200        0.51265835777272
N            2.42224525494286       -0.42331364364140       -0.35340764756494
C            2.54148383772863       -1.65380417684698        0.03952158226562
N            1.32987955193541       -2.31482243697822        0.14391026934945
C            0.38186583100046       -1.39810505782699       -0.17777902876868
C            1.06649234540088       -0.23542016331292       -0.50424756409098
C            0.30297668557338        0.95591438762612       -0.77857038644636
O            0.68177247486751        1.97545523942548       -1.27880230226935
N           -1.01889743382872        0.87211612442422       -0.25648426018080
C           -1.70875999406235        2.08639227689775        0.15572144512463
C           -1.69253355600544       -0.28350463993458        0.00049411820420
O           -2.86877205114105       -0.28124518953149        0.28941851756110
N           -0.97765908815617       -1.48749623358300       -0.12452290982565
C           -1.80576313557390       -2.69348574541765       -0.18661042705911
H            3.93063742280030        2.60378208700017        0.99155836233900
H            2.86739756795127        2.79363611939539       -0.51015364306826
H            2.08240176259689        2.40463978251408        1.06281327726994
H            3.45934221403085       -2.13924449163232        0.29905559762799
H           -1.03119246244734        2.89251952615924       -0.05875527292631
H           -2.64162093573446        2.26305823929695       -0.34786849921938
H           -1.90683098171902        2.05024294913494        1.23325329280943
H           -1.86891297199718       -3.27737910541611        0.74836873406725
H           -1.53126932052985       -3.36648539484295       -1.00123210075319
H           -2.79727756603612       -2.30022662660979       -0.40320257629312
H            1.17656266414474       -3.27907535530196        0.37045099199733
