25
 energy: 30.081302359419 xtb: 6.6.1 (8d0f1dd)
C            2.99352351305770        1.54425762017397        0.14732612369670
N            2.43161420097705        0.06186520821874        0.00880067849425
C            2.72399033354519       -1.34200803632508        0.14430087609109
N            1.52695146169016       -2.07915436103313        0.08127449005694
C            0.47346995094411       -1.23206571637148       -0.01498226589582
C            1.03964439748024        0.03460767489786       -0.07859565731126
C            0.22847284040349        1.15454874937400       -0.27147199999393
O            0.58293859368346        2.28182421742259       -0.64755647104525
N           -1.15090392937073        0.92899284489670       -0.06094552478727
C           -1.98837139121422        2.11600435941412       -0.01444496091804
C           -1.74505352927789       -0.28363586279763       -0.05594394538284
O           -2.94993330794793       -0.40269345531661       -0.02637183460186
N           -0.89859326809974       -1.42066180150545       -0.06245851903172
C           -1.62440990139942       -2.67964857276585       -0.08321271618592
H            3.56373372731231        1.86022271590708        1.01363851987079
H            3.61347980250714        1.81121008829968       -0.72708892571649
H            2.09897233934371        2.17197068580832        0.14837721128272
H            3.61382334166583       -1.94448099702878        0.14078037116024
H           -1.37719816081072        2.99649449879964       -0.03257594667982
H           -2.59452043311341        2.19663820639838       -0.88844110925098
H           -2.52386987660432        2.16688295774736        0.91924896626652
H           -1.44007028938518       -3.26498005904436        0.82052637935926
H           -1.40217194943414       -3.28023662740818       -0.96698581158028
H           -2.68685771345897       -2.39481230575222       -0.12530654337259
H            1.46827856984286       -3.09351689483841        0.11178113463006
