25
 energy: 32.644116391289 xtb: 6.6.1 (8d0f1dd)
C            3.47144615108498        3.43947887242318        0.29398039585986
N            2.34321495487701       -0.78950525331845       -0.10402898360626
C            2.37867646341662       -2.07097495023545       -0.03688101734723
N            1.11917644658830       -2.63378681320748       -0.03054303456217
C            0.24800259526766       -1.59436600084507       -0.09432905363428
C            1.02065041565581       -0.44776825917004       -0.12605836127508
C            0.40189577449534        0.84467730163495       -0.14853085049341
O            0.95205343805908        1.91579894801338       -0.16516354828087
N           -0.99357269946050        0.76974379827601       -0.02387881337724
C           -1.68169553890875        2.04830303444509        0.11701788433411
C           -1.77428829122130       -0.36230653671525       -0.02319434352432
O           -2.98054891548040       -0.31695312701058        0.05599208515586
N           -1.10709772596097       -1.58280191806082       -0.10548782660031
C           -1.88339368089870       -2.79597349335648       -0.17301500730084
H            4.00800361202257        3.70286907062908        1.17266453889128
H            3.79045999459880        3.76621739924903       -0.67035119976874
H            2.53993942300946        2.93323869926618        0.36630086382736
H            3.28237941956030       -2.63808044301487        0.03083361614735
H           -0.94558981733225        2.85320595646861       -0.00773122415163
H           -2.45233998545157        2.13339104401989       -0.65101272681425
H           -2.15743853502121        2.07173809171346        1.09708695757986
H           -1.76479016428617       -3.35459759541052        0.75187148002422
H           -1.56757151155028       -3.38478137419775       -1.03632114552368
H           -2.92685578055903       -2.50298987101739       -0.27589254888019
H            0.90281534887535       -3.61169600888770        0.00751880927702
