25
 energy: -4.832296613424 xtb: 6.6.1 (8d0f1dd)
C            3.21039871546632        1.25479989592217        0.09182665799955
N            2.34354138283534        0.09897692658827        0.03216795626037
C            2.62038797350629       -1.26621133717448        0.03495651558963
N            1.42047946845920       -1.96188641120222        0.00623044869224
C            0.40676505887066       -1.08420001253404       -0.01108530286114
C            0.94935246241073        0.18886183529846        0.00550584073591
C            0.13974323761710        1.33146128116884       -0.02376110690669
O            0.53679436354660        2.49635939002264       -0.06427673197995
N           -1.25608764007169        1.02069137172641       -0.03168655828206
C           -2.18049880682955        2.13719201838733       -0.04442030665822
C           -1.82193782770535       -0.21566190450888       -0.04937256896416
O           -3.02335415360654       -0.39919442186653       -0.07080531436970
N           -0.94043710118073       -1.31418452174032       -0.04137295068463
C           -1.50362050553177       -2.64206864115667       -0.06334788663132
H            3.72283726528925        1.35193406624486        1.05850198544129
H            3.98685983212807        1.21378732861723       -0.68305427490447
H            2.58054055948413        2.13631178409628       -0.05181402792786
H            3.58360436381190       -1.71533875743612        0.04682175986513
H           -1.61266287050751        3.06187116857736       -0.02571181617883
H           -2.77787907082207        2.11099519384795       -0.94955172316312
H           -2.81416296034607        2.09805684310362        0.83596846418836
H           -1.22294875102085       -3.20228054733972        0.83083057698896
H           -1.19697957910810       -3.18767117447422       -0.95817019025119
H           -2.58622335322752       -2.51672483621480       -0.08045210756500
H            1.31744293473051       -2.96151310600737       -0.00753152693194
