72
 energy: -99.391037410048 gnorm: 0.005327624121 xtb: 6.6.1 (8d0f1dd)
N           -1.68923192908777        3.14793604882472        2.03515478809516
C           -2.28924052481186        2.27456976877736        1.45945289013154
C           -3.18286495491669        1.99343859073590        0.36446884990104
C           -3.64942430676255        0.54441972257012        0.41010453576841
C           -4.48834842427855        0.03984306268306       -0.58176802420805
C           -4.90958449960076       -1.28001253865423       -0.55903049755352
O           -5.73005799136279       -1.85185441755968       -1.46254269684203
C           -6.27865081660249       -1.06482976481514       -2.49341520639108
C           -4.46435475011609       -2.14076271698610        0.48156390170563
O           -4.90889860475511       -3.41001416830558        0.41220654270732
C           -4.53674439483511       -4.32189144037860        1.41949487763966
C           -3.63507063164940       -1.62645280174867        1.46573709180207
C           -3.24133242363272       -0.29708881668396        1.43173963796257
C           -2.40677945586222        2.27278522591623       -0.95705199333467
C           -1.44555502297713        1.15798339246804       -1.36235710687331
C           -0.34675579076392        0.91190082443220       -0.32200135198388
N            0.59362527548050       -0.08526749648311       -0.78105484913165
C            1.96431340428110        0.05282548570232       -0.33687382163527
C            2.94919099774978       -0.35723844244812       -1.44763558151466
C            4.36459163565809       -0.15267178057464       -0.99418690602052
C            5.00347056561257        1.06437646138865       -1.18515394378683
C            6.30478140235581        1.26190259809172       -0.75235802263757
C            6.99851582561106        0.24383530578227       -0.11191235419809
O            8.26444679975122        0.31874728437783        0.33964924403948
C            9.00194470202671        1.50015739470935        0.12695186487512
C            6.34957643086764       -1.00500073213878        0.09993653302593
O            7.09197885114327       -1.93639125333566        0.73028704907209
C            6.54929535695190       -3.21619547819216        0.95251037273722
C            5.04684203681968       -1.17723022114021       -0.34317015864737
C            0.08619097891896       -1.43372759917567       -0.70255785809826
C           -4.43073465723662        2.93953005509178        0.49625165079801
C           -5.15823584850495        2.68161194993649        1.81286397367030
C           -4.08160252457322        4.41633552855032        0.36058566827010
H           -4.81500612181341        0.68526843758538       -1.38076936003846
H           -6.87254815262621       -0.23727277750665       -2.09314092509458
H           -6.92764394316808       -1.73311466423801       -3.05587342501111
H           -5.50216085695625       -0.67284517887107       -3.15802451417973
H           -4.87849465379132       -3.99245568704287        2.40530262578569
H           -5.02831873219749       -5.25797108706676        1.16232526397169
H           -3.45317970965658       -4.47560000838926        1.44009855203002
H           -3.29217850461800       -2.25273513291456        2.27302261502425
H           -2.61318792036310        0.08692875913697        2.22504745859470
H           -3.14265437609840        2.40518466674876       -1.75071946893605
H           -1.85498898064421        3.20687305085896       -0.84907669273140
H           -2.00592042507593        0.23873059170928       -1.53070126313317
H           -0.96677312614243        1.43528941420324       -2.30280979620563
H           -0.81980266435072        0.59419275629230        0.63127053349344
H            0.19231904971337        1.85015975878068       -0.16255334857564
H            2.16011421239579       -0.55267972518760        0.56141009849386
H            2.15574230138082        1.09757432513660       -0.08435509687027
H            2.74349385270838        0.25110553907650       -2.32855526332336
H            2.79260719628434       -1.40321388048064       -1.71100664634245
H            4.48705268556386        1.86754719576704       -1.68805898561527
H            6.77602005655784        2.21604866303214       -0.92307214455126
H            8.55287109987454        2.35199888811919        0.64684289645087
H            9.09202653407552        1.72876252685845       -0.93920699895289
H            9.99017625299814        1.30611751326438        0.53961946689568
H            7.33335975940585       -3.78390913250893        1.44988788091020
H            5.66844816484538       -3.17147819771938        1.60082847109298
H            6.28659534201505       -3.70902111579788        0.01144010248107
H            4.54874352103502       -2.12276340729331       -0.19626964806346
H           -0.77380603679857       -1.54766883284364       -1.36058378953909
H           -0.22625514067048       -1.69501555152836        0.32038903253767
H            0.85109514697360       -2.13623701427031       -1.02168286203735
H           -5.09809612431686        2.66458449804322       -0.32573295023330
H           -4.54859805406706        2.99197765833285        2.65833401209524
H           -5.40105834240735        1.62765550259081        1.92634829119729
H           -6.08492817490173        3.24882949816393        1.83812382724647
H           -3.34896043695633        4.71644154374708        1.10546549642086
H           -3.69409038971370        4.65017539507075       -0.62679101715140
H           -4.97980952782305        5.00894174090800        0.51462984565033
H           -1.09098589456539        3.11216396131759        2.84397346944920
