  25
        -42.15876024
 C          2.9664694645        1.2046501104       -0.4438212053
 N          2.1291349428        0.0698174332       -0.1753012392
 C          2.5233552541       -1.1816209854       -0.0790244506
 N          1.4846531816       -1.9852906309        0.1817068993
 C          0.3026280836       -1.2220382641        0.2698360343
 C          0.7471151809        0.1249890364        0.0207129710
 C          0.0392377617        1.3219379348       -0.0145515385
 O          0.3682442699        2.4657972511       -0.1559578881
 N         -1.5010181091        1.0755237228        0.1833022202
 C         -2.0039712926        1.4030518838        1.5074738051
 C         -2.1529522140        0.7512689636       -0.8190189623
 O         -2.6146193338        0.4520766943       -1.8234121368
 N         -0.8786467558       -1.6084362423        0.5332444654
 C         -1.2243369548       -2.9705649692        0.7942691834
 H          2.9624121029        1.8852534461        0.4087901346
 H          3.9828662192        0.8702345482       -0.6385690481
 H          2.5887298240        1.7533088890       -1.3067823603
 H          3.5382927235       -1.5129680874       -0.1964920864
 H         -1.6538383366        2.4008051980        1.7737473031
 H         -3.0906299092        1.3796128797        1.5179836876
 H         -1.6135333474        0.6717513038        2.2137856510
 H         -0.5133242166       -3.4742081070        1.4559888254
 H         -1.2927478360       -3.5346527682       -0.1401971834
 H         -2.2057141363       -2.9738675141        1.2655471278
 H          1.5351029641       -2.9858499425        0.2922089267
