25
 energy: -42.110097934669 gnorm: 0.007106965153 xtb: 6.6.1 (8d0f1dd)
C            4.42020479217940        1.54949036963751        0.32474775100803
N            3.60330475999156        0.42244065605847        0.43210208197446
C            2.04121230745052       -1.19048047167985       -0.27100723718848
N            0.84343985111838       -1.66932181420177       -0.24561720547154
C           -0.31538863810931       -0.95339555829504       -0.12344196161096
C            2.76882796225055       -0.04954410203252       -0.41501935674149
C           -0.45366620841695        0.50269890716197       -0.19021107711597
O            0.40219379085863        1.34040590757891       -0.37623736332675
N           -1.80588963490345        0.72065434318911       -0.00367603772741
C           -2.43310539429470        2.02071970046756       -0.01271908717799
C           -2.49616554978120       -0.45743384283677        0.16703298729335
O           -3.66422729431552       -0.62694397080653        0.34941265553862
N           -1.53146446408198       -1.49538191345175        0.08590484983400
C           -1.88181696596053       -2.88095490923967        0.23292853640549
H            4.40975525999340        2.06766287340375        1.28824996669133
H            5.45182825811014        1.22120938759105        0.15085620670490
H            4.11695500667863        2.24446308092371       -0.46752829654373
H            2.68739398096553        0.39374374635175       -1.42022339431530
H           -1.64601034007923        2.77228629254098       -0.01928819406264
H           -3.05798692719509        2.13192283541230       -0.90020426711464
H           -3.05919997553285        2.13381966794286        0.87193332495782
H           -1.36119395702575       -3.32748622046696        1.08251787947402
H           -1.65772523930310       -3.44168161481753       -0.67675688153478
H           -2.95612041903871       -2.92098962658678        0.41533293567624
H            0.73527655254295       -2.68966518224633       -0.24791719772410
