25
 energy: -42.094381520395 gnorm: 0.009501791953 xtb: 6.6.1 (8d0f1dd)
C            3.15225386341680        1.41586734735294        0.01903868842677
N            2.34792897287945        0.27680181070127       -0.00503549065440
C            2.58015352348936       -2.30253216265533       -0.01437240125165
N            1.29651009105085       -2.22787803806592       -0.01006630234356
C            0.46950761434480       -1.10917216870871       -0.00472194216600
C            1.06120727753960        0.17005800575847        0.00213457672084
C            0.13370589632354        1.35619204456043        0.00656523711083
O            0.54517812236970        2.49252200317586        0.01563784653496
N           -1.20092870561519        1.05311046581995       -0.00635899276887
C           -2.16183629396031        2.15111036835687       -0.00919764719383
C           -1.76661963581050       -0.20839277118211       -0.00655678275988
O           -2.95448027914659       -0.37773656355676       -0.00884895119971
N           -0.87430776242564       -1.29067047859196       -0.00329357191288
C           -1.46784277975982       -2.61600585716987        0.00298916553850
H            3.71066330402167        1.44963838597925        0.96069100849533
H            3.88275325628357        1.36247071729115       -0.79353904142225
H            2.55495075462766        2.33076816594610       -0.07521241536605
H            3.21631167950924       -1.42053115135763       -0.00919385198719
H           -1.61683768861581        3.09130271304513       -0.00265169397174
H           -2.78961317538796        2.08231850506011       -0.89734578051281
H           -2.80159532977687        2.07713538874761        0.86996782619421
H           -1.18868355521556       -3.16772038722681        0.90233021469174
H           -1.19986495988309       -3.17227500050085       -0.89704215923964
H           -2.55074703878239       -2.47996776465238        0.00884796398739
H            0.78266436262354       -3.11817503652681       -0.01359388505007
