25
 energy: 0.000000000000 xtb: 6.6.1 (8d0f1dd)
C            3.23720163006194        1.16630919979326        0.08434469647475
N            2.29877817382611        0.07527477071623        0.03981603040599
C            2.58028210190900       -1.21425402444508        0.03006176031096
N            1.43813958087363       -1.93419271955128        0.00098261760884
C            0.39035688448383       -1.05887472636071       -0.00790371836672
C            0.93510056364412        0.21347819449412        0.01709077491437
C            0.09450143893243        1.40504303904423       -0.00410947031874
O            0.49712751527797        2.54126714362870       -0.00342325688240
N           -1.25076640035757        1.06271879480407       -0.03085478223738
C           -2.21907211982101        2.15522099834493       -0.05001256985998
C           -1.81739487048744       -0.20012725993278       -0.04692818574614
O           -2.99983886758376       -0.37846417018721       -0.07008878229737
N           -0.92618586207120       -1.30210215599479       -0.03682761578324
C           -1.46982264913417       -2.64643102187190       -0.06029820460571
H            3.71247264356769        1.21471455160235        1.06488849150277
H            4.00791497605742        1.03430808813993       -0.67357694370751
H            2.69910007168542        2.09770118228144       -0.09130154882931
H            3.56654120610678       -1.63682992603973        0.04233140067262
H           -1.67107961066214        3.09322851271934       -0.02552706933167
H           -2.82428953597071        2.09428624779827       -0.95318082946668
H           -2.87644029173232        2.07745725625962        0.81450067533302
H           -1.17061996399332       -3.19584890659852        0.83242232437030
H           -1.14560257411436       -3.17511610292205       -0.95688275822323
H           -2.55549792440841       -2.55659984320617       -0.07459039797972
H            1.38130855184625       -2.94313852034425       -0.01389874181052
25
 energy: -0.623210749500 xtb: 6.6.1 (8d0f1dd)
C            3.23527504496840        1.18550498978104        0.08489986988519
N            2.30041925723096        0.08786973306527        0.03875046710588
C            2.58425827857997       -1.25176184560759        0.03203373283685
N            1.42056087948925       -2.00696734433240        0.00242904784381
C            0.40388936448450       -1.07497931643420       -0.00765810186172
C            0.92764276470956        0.21703048927007        0.01616170320658
C            0.10041956839342        1.40487299834974       -0.00415187079442
O            0.49371672367752        2.57297292521468       -0.00187349556109
N           -1.26186505785490        1.06625318328379       -0.03152259845228
C           -2.22959961067587        2.16051777567544       -0.05037586804388
C           -1.81682875135661       -0.18801867638203       -0.04868609107526
O           -3.01278463944999       -0.37172012505949       -0.07340388017360
N           -0.92761428418886       -1.29154739839844       -0.03731536733362
C           -1.45503904003041       -2.63096523988768       -0.06063485678528
H            3.72840833986059        1.23783391150360        1.06009300699591
H            4.00086885166821        1.06786805376367       -0.68397628058881
H            2.69976394969205        2.12210512166503       -0.07857187401767
H            3.57013234280784       -1.64927030873993        0.04737080060323
H           -1.68122290544992        3.10004423449640       -0.02624041823984
H           -2.83802385398377        2.10446894193448       -0.95302285644693
H           -2.88964818977476        2.08775642700514        0.81384223319966
H           -1.13513177842668       -3.17242493087924        0.83126300177199
H           -1.11131899290651       -3.15108103764154       -0.95643836364158
H           -2.53976915157350       -2.54836071492592       -0.07434346333358
H            1.34570555804567       -3.08897324454786       -0.01159458095227
25
 energy: 9.665185016465 xtb: 6.6.1 (8d0f1dd)
C            3.23207592075747        1.19569930386165        0.08426267967747
N            2.30045891127991        0.09071250329803        0.03767485507387
C            2.58039423054154       -1.28347897614965        0.03610298049553
N            1.40052026478430       -2.07328155826473        0.00524089553090
C            0.41602432233519       -1.09014038362040       -0.00681091083169
C            0.92074321680152        0.21297392019295        0.01507405069875
C            0.10537408631152        1.39560494899181       -0.00393438001480
O            0.48252941123698        2.57696265530758        0.00081287129809
N           -1.27467896817428        1.07576207421003       -0.03256269257168
C           -2.23993834805249        2.17224352102311       -0.05104120998313
C           -1.81306648295109       -0.17158816314115       -0.05097074187205
O           -3.01294264079452       -0.36556047647609       -0.07822426911151
N           -0.92807247405933       -1.27174513406977       -0.03767800886546
C           -1.43550447402874       -2.61121059857300       -0.06115127836069
H            3.74589410961493        1.25406999365031        1.05116643993544
H            3.98924618235007        1.10515360529965       -0.69984114968706
H            2.69254639106367        2.13620374220637       -0.06039428291567
H            3.57269913005002       -1.64848512408390        0.05558551439508
H           -1.69285850755639        3.11344538591400       -0.02738512313529
H           -2.85189200985864        2.11771135488671       -0.95241542594429
H           -2.90251940734259        2.10131616341056        0.81243231332367
H           -1.09402840229239       -3.14465995265354        0.82932346667086
H           -1.07196165151068       -3.12246544986324       -0.95594223065255
H           -2.51997350756837       -2.54693408646102       -0.07408971180686
H            1.31114536499858       -3.22928066672424       -0.00820075519962
25
 energy: 18.270719984722 xtb: 6.6.1 (8d0f1dd)
C            3.23053225924817        1.19966449592348        0.08349843158245
N            2.30164438711254        0.09155721999702        0.03785549742757
C            2.57691071449008       -1.29488621408896        0.03962176259997
N            1.39030468284768       -2.09995958286801        0.00709077629015
C            0.42057724090647       -1.09721386644904       -0.00596555988297
C            0.91874645315220        0.20892792176503        0.01466741707293
C            0.10776889985531        1.39186558427627       -0.00345399490983
O            0.47639073150428        2.57408836904676        0.00256809662583
N           -1.28104547436117        1.08459959301518       -0.03329306103799
C           -2.24441450159711        2.18100919890582       -0.05171629552302
C           -1.81232264565513       -0.16344553390854       -0.05252211271574
O           -3.01180418349405       -0.36551214295244       -0.08150744702216
N           -0.92820278615706       -1.25900788776518       -0.03769156185617
C           -1.42572338777728       -2.60172437417694       -0.06135883442468
H            3.75592006668008        1.25677928845937        1.04438883703524
H            3.97941316610073        1.12444928062360       -0.71073299585041
H            2.68568195159908        2.14061471809465       -0.04812715439154
H            3.57614703158662       -1.64100745098275        0.06163972114590
H           -1.69871666297669        3.12276619017570       -0.02847562528042
H           -2.85743299986844        2.12512447243086       -0.95254404622886
H           -2.90732292799767        2.10927256477072        0.81173813978709
H           -1.07404072024202       -3.12983529332425        0.82856618322933
H           -1.05313097415064       -3.10724244896944       -0.95595097987536
H           -2.51030536658141       -2.55143363391815       -0.07379011737094
H            1.29663971371162       -3.31042186590874       -0.00747118027908
25
 energy: 24.444870995785 xtb: 6.6.1 (8d0f1dd)
C            3.23126358388190        1.20248765244036        0.08336048802058
N            2.30346780704937        0.09422706838327        0.03822088562474
C            2.57557853919292       -1.29497103033842        0.04178825830209
N            1.38664243391268       -2.10455298900770        0.00783256629105
C            0.42175329077689       -1.09897746724205       -0.00598693327670
C            0.91908883654695        0.20767487545839        0.01374633974619
C            0.10869788916893        1.39228865692680       -0.00347792130577
O            0.47315724873546        2.57277236450141        0.00331593568456
N           -1.28309210205048        1.08954001539466       -0.03372846202589
C           -2.24596915529685        2.18438902596555       -0.05196150000879
C           -1.81292235228987       -0.16104151367516       -0.05324039632943
O           -3.01132442598173       -0.36695628979754       -0.08266390604021
N           -0.92824252705129       -1.25253043961678       -0.03775741854791
C           -1.42342932646099       -2.59817085168111       -0.06133840940263
H            3.76045719730521        1.25695898184955        1.04144170074116
H            3.97568256981293        1.13145947112232       -0.71431383698022
H            2.68493634594562        2.14324838203288       -0.04344719731575
H            3.57844139942519       -1.63183833173959        0.06418011673430
H           -1.70143929571979        3.12643362510488       -0.02900471865084
H           -2.85915082749051        2.12722789922093       -0.95263814671401
H           -2.90849234786589        2.11174174037240        0.81179691739096
H           -1.06923560552669       -3.12384085336843        0.82841595672884
H           -1.04903709802080       -3.10129775010340       -0.95596389344995
H           -2.50776656388003       -2.55326439870157       -0.07345275756653
H            1.29314915381707       -3.36397924132961       -0.00808977150255
25
 energy: 33.197986898139 xtb: 6.6.1 (8d0f1dd)
C            3.23330983475617        1.20647654005155        0.08342228374516
N            2.30575218298031        0.09960132325241        0.03886949351696
C            2.57489463143052       -1.28861870626047        0.04442533387484
N            1.38526770687642       -2.09615699590503        0.00883451440713
C            0.42145052706204       -1.09718546197755       -0.00656679693310
C            0.92031650422197        0.20918098889421        0.01233014319873
C            0.10884472204378        1.39593358286069       -0.00354488170020
O            0.47025566543641        2.57381606682543        0.00384528335797
N           -1.28353839364904        1.09369036898424       -0.03402385582984
C           -2.24694239221403        2.18582021724214       -0.05205923973528
C           -1.81437430749142       -0.16033999800319       -0.05345380671037
O           -3.01135772483820       -0.36745606989521       -0.08285970768602
N           -0.92835687259302       -1.24670442371234       -0.03789666717693
C           -1.42323967647741       -2.59596671504254       -0.06128153120125
H            3.76290315859687        1.25813052740860        1.04024859228454
H            3.97512689730285        1.13483210119316       -0.71501236941586
H            2.68751222815749        2.14702870773840       -0.04214559229393
H            3.57988328110625       -1.61999727040854        0.06429474971124
H           -1.70434809510539        3.12865500090402       -0.02925617346661
H           -2.86018417107897        2.12763324841697       -0.95266117732981
H           -2.90913984522089        2.11236202651276        0.81196556814225
H           -1.06840734154307       -3.11975672864533        0.82837088799014
H           -1.04869165509710       -3.09742173095782       -0.95592948243362
H           -2.50725980602173       -2.55299107807026       -0.07318861003347
H            1.29253760929539       -3.44153691923427       -0.00969306213539
25
 energy: 38.671344253755 xtb: 6.6.1 (8d0f1dd)
C            3.23669393262735        1.21652623613209        0.08303560294199
N            2.30861058026758        0.11261202172223        0.04019337074953
C            2.56973885014060       -1.27680584257356        0.05124709072587
N            1.38058120161697       -2.08580430478598        0.01315940672357
C            0.42383403361266       -1.09278365631383       -0.00695797446683
C            0.92090926151906        0.21600380929212        0.01016000151153
C            0.10966462825072        1.40397710755362       -0.00324994568106
O            0.46172853856264        2.57872333826491        0.00442554968533
N           -1.28594384143190        1.10411690200817       -0.03445053102387
C           -2.25014508949071        2.19081003198138       -0.05226987735802
C           -1.81474078820692       -0.15627807756836       -0.05393988609319
O           -3.00954765281458       -0.36717124651335       -0.08360086220005
N           -0.92750774089844       -1.23160912896853       -0.03819899258575
C           -1.41929338814074       -2.58823693918579       -0.06124221867122
H            3.76809315023191        1.26272127401697        1.03728580912653
H            3.97324756626512        1.14487423567553       -0.71790136422014
H            2.69181045325126        2.15753214116216       -0.03890248676107
H            3.58022589350755       -1.59405559110680        0.06462027547002
H           -1.71099885959604        3.13510966573232       -0.02970208179563
H           -2.86341243775724        2.12994270667409       -0.95282679187753
H           -2.91181234748516        2.11504816733241        0.81220470933887
H           -1.06058891965648       -3.10873082186680        0.82725361320787
H           -1.04165599784316       -3.08678100993537       -0.95488463025314
H           -2.50295258448879       -2.55255541671045       -0.07287173865379
H            1.28567622589290       -3.63815699984713       -0.01555215169254
25
 energy: 29.816355295573 xtb: 6.6.1 (8d0f1dd)
C            3.24186924280551        1.23048446079771        0.08279911805250
N            2.31045250868003        0.13368079952893        0.04211212953521
C            2.55069347776465       -1.24525599006469        0.05651204963923
N            1.37748780167791       -2.04139366177478        0.01961077167986
C            0.42897649651520       -1.07328271994050       -0.00723418561733
C            0.92379245475134        0.23627036659893        0.00730659519709
C            0.11024284541465        1.42296348027745       -0.00267656882535
O            0.44779037536466        2.58664011481643        0.00479979673679
N           -1.28538666771052        1.12166389182046       -0.03474439522316
C           -2.25289440403818        2.19718300177711       -0.05250791937076
C           -1.81207863293966       -0.15413969952310       -0.05426344105296
O           -3.00301556322297       -0.36683241126655       -0.08427839166334
N           -0.92265395302839       -1.20790984457717       -0.03797808549227
C           -1.41274122688307       -2.57857449656402       -0.06098435274385
H            3.77213168167757        1.26664008681246        1.03396030480121
H            3.97031437061126        1.15473205854909       -0.72016134147866
H            2.69737159377765        2.17094704282948       -0.03562848667252
H            3.56918753554763       -1.55607491041770        0.06485500819275
H           -1.71855020822732        3.14291734548363       -0.03016081858338
H           -2.86585289077063        2.13150291899529       -0.95300851915601
H           -2.91385591144068        2.11702374402079        0.81232214182451
H           -1.04928725986381       -3.09684369103700        0.82367726424809
H           -1.03122657287765       -3.07513028018096       -0.95124263519614
H           -2.49626187733640       -2.55319405454467       -0.07251112003141
H            1.27570945168736       -3.97498895024459       -0.02354102265282
25
 energy: 20.714241675384 xtb: 6.6.1 (8d0f1dd)
C            3.24167209390991        1.23703446117513        0.08356687642109
N            2.29838654001091        0.14416497047710        0.04531736985115
C            2.51254159432309       -1.18596354640087        0.04715531153362
N            1.40529239415958       -1.92095499532182        0.01987762504275
C            0.43339383015980       -1.01965346092936       -0.00548325541409
C            0.92910706676029        0.28134751755742        0.00791592038010
C            0.09972297433990        1.45828551334451       -0.00455126173549
O            0.44135472215947        2.60703677527790        0.00530681620441
N           -1.27202337851136        1.13067807715114       -0.03469140525377
C           -2.25122907954936        2.19739247722770       -0.05235187702066
C           -1.80443642580064       -0.16463828696444       -0.05353358427999
O           -2.99501823198926       -0.35593603509900       -0.08307230062738
N           -0.91037192571383       -1.20146736250342       -0.03606021409771
C           -1.40725114514098       -2.57843130074781       -0.06035782778143
H            3.76694187081652        1.26762696667455        1.03636645082598
H            3.97165717478772        1.14861203793048       -0.71661416738135
H            2.70312945328735        2.18007813765722       -0.03912498259032
H            3.53180917060391       -1.54174155951757        0.06451557344281
H           -1.72272137822709        3.14640686860719       -0.03005395802738
H           -2.86433985171520        2.12913164085125       -0.95238697345178
H           -2.91280350467762        2.11429803498108        0.81148113683839
H           -1.04300097349733       -3.09933513697686        0.82011665106366
H           -1.02488524203822       -3.07686251437292       -0.94676263929930
H           -2.49212637055442       -2.54916357380743       -0.07239699602069
H            1.27741329003306       -4.35891710409917       -0.02714439247532
25
 energy: 20.109797551057 xtb: 6.6.1 (8d0f1dd)
C            3.24667802108114        1.25699930737417        0.08344572712892
N            2.29616178584652        0.17074554842405        0.04388696015920
C            2.51253251178422       -1.15219798183352        0.04494737756700
N            1.42667240041321       -1.87957324649600        0.01628865712811
C            0.43194916604625       -0.98448052670001       -0.00608386950407
C            0.92759284663423        0.31735844271695        0.00863985275252
C            0.08785303227359        1.48355075166528       -0.00457530664050
O            0.43237749210497        2.64396991135358        0.00577372722156
N           -1.26921541557932        1.13277907947095       -0.03393201172169
C           -2.25414295537474        2.19701291598735       -0.05172863236715
C           -1.80187823815964       -0.16474444151546       -0.05217298359979
O           -2.99663541766195       -0.34185994098482       -0.08082364101200
N           -0.91022388417671       -1.20132327519813       -0.03592456301027
C           -1.40360516244205       -2.57615578769308       -0.06009486711269
H            3.76276709967337        1.27948018801287        1.04332203826552
H            3.98370089197464        1.14583753838396       -0.70977480262649
H            2.71678383279998        2.20169154011330       -0.05013021999674
H            3.52220988984279       -1.53091697152180        0.06398437173990
H           -1.72626976878728        3.14750689805357       -0.02881092100641
H           -2.86474172292173        2.12599610101289       -0.95279773911130
H           -2.91366059495101        2.11009600423951        0.81270065658798
H           -1.04665828345152       -3.10248303487012        0.82180487668917
H           -1.02800870306019       -3.07959640941807       -0.94804876292894
H           -2.48850935560060       -2.53869072200135       -0.07224942239229
H            1.26848519962798       -4.67197328640405       -0.03061260606229
25
 energy: 19.756289790419 xtb: 6.6.1 (8d0f1dd)
C            3.25153333836924        1.27644862762397        0.08440371788731
N            2.29630647996324        0.19891335723988        0.04326276869573
C            2.52486290900088       -1.12697123082643        0.04128078168060
N            1.43405182674224       -1.85838844073258        0.01344087682866
C            0.42808752497276       -0.95953900988934       -0.00465686035095
C            0.92587382333650        0.33940276408008        0.01309291293042
C            0.07920211007975        1.49461557216327       -0.00321308749497
O            0.43243573523026        2.65915824316196        0.00307955160155
N           -1.26866986570825        1.13206296515495       -0.03303247675280
C           -2.25695234326128        2.19739445742282       -0.05181756154761
C           -1.79977124034267       -0.16143255385506       -0.05100583177990
O           -2.99762548350513       -0.33297188797370       -0.07936636327449
N           -0.90984492711426       -1.20552320405798       -0.03551378563069
C           -1.39987885273498       -2.57351344757155       -0.05997395694756
H            3.76193897703516        1.29301215553187        1.04927969296498
H            3.99329356565163        1.14838383814852       -0.70479998420328
H            2.72515828765272        2.22011066486032       -0.05585970128403
H            3.52283124252837       -1.52519163371882        0.05833755581723
H           -1.72684563549408        3.14706490567762       -0.02847373584329
H           -2.86558389464257        2.12582191171849       -0.95343117546338
H           -2.91556668513855        2.10963836905717        0.81238793233438
H           -1.04884779010597       -3.10517376979723        0.82311683955387
H           -1.02858505097264       -3.08215626873557       -0.94865600111944
H           -2.48657438049820       -2.53289425304139       -0.07280684764521
H            1.24138499689201       -4.88924352946925       -0.03204136480984
25
 energy: 19.703167381917 xtb: 6.6.1 (8d0f1dd)
C            3.25268391549703        1.27926469656708        0.08412677153955
N            2.29494670138243        0.20642805183976        0.04326451619255
C            2.53017397900590       -1.11888217315497        0.04078529440365
N            1.43659416791229       -1.84891519121684        0.01210038726735
C            0.42787680135499       -0.95221250594268       -0.00425452261270
C            0.92574878820381        0.34418626958900        0.01551028950081
C            0.07599950275841        1.49691656828401       -0.00323935493839
O            0.43279815375658        2.66144950027851        0.00221127149171
N           -1.26924265409017        1.13087995969823       -0.03287801616733
C           -2.25851024371104        2.19720980277586       -0.05146859720834
C           -1.79811436975223       -0.15986146062462       -0.05125260063209
O           -2.99594524661135       -0.33442460988637       -0.07927523893069
N           -0.90697015760039       -1.20881744710466       -0.03623769016088
C           -1.39774238523133       -2.57223575969829       -0.06026447376191
H            3.76199748969084        1.29515541316792        1.04973401986447
H            3.99532052761187        1.14714349837892       -0.70369246296145
H            2.72849428477503        2.22337337808287       -0.05784729659885
H            3.52232816974416       -1.52786522731306        0.05882139075162
H           -1.72675209763684        3.14598960033545       -0.02807675666086
H           -2.86650094130496        2.12553516928131       -0.95318329598408
H           -2.91635731251131        2.10892740128182        0.81293616631384
H           -1.04928369904166       -3.10627456354180        0.82302058513573
H           -1.02900853154035       -3.08360495366745       -0.94890394384808
H           -2.48518197309403       -2.53024320937335       -0.07295006673129
H            1.22686179836851       -4.93009360586463       -0.03195247911702
25
 energy: 19.693948839159 xtb: 6.6.1 (8d0f1dd)
C            3.25237434069621        1.27979459756033        0.08450923598380
N            2.29398245566394        0.20842699306908        0.04319612561752
C            2.53293596830588       -1.11678725499077        0.03988420473185
N            1.43818202943552       -1.84819299160217        0.01136322560046
C            0.42843209858827       -0.95265059212821       -0.00407238685344
C            0.92579091801669        0.34366509826389        0.01636061861853
C            0.07563968717935        1.49665240376961       -0.00317478126527
O            0.43312927146411        2.66098083168781        0.00200450708985
N           -1.26942354180547        1.13010271012930       -0.03274971328739
C           -2.25846982323150        2.19735550495430       -0.05173867327198
C           -1.79721392297351       -0.15857031080676       -0.05104457226811
O           -2.99478402736243       -0.33592896154265       -0.07904686987806
N           -0.90555113336338       -1.21079851420729       -0.03638445349609
C           -1.39766424706248       -2.57198041902542       -0.06009007072258
H            3.76181070580037        1.29563039608347        1.05006668960834
H            3.99497912262740        1.14789507046130       -0.70315958433470
H            2.72920250409921        2.22464591393607       -0.05721750686743
H            3.52287078390760       -1.52877107560184        0.05741703978898
H           -1.72617532604806        3.14584376271613       -0.02844509626892
H           -2.86608526167974        2.12551396947546       -0.95355789062483
H           -2.91616871376802        2.10920071052463        0.81263112525121
H           -1.04999349128513       -3.10708180776068        0.82312493625610
H           -1.02983556589189       -3.08449019128794       -0.94867183745986
H           -2.48536466834601       -2.52994124647906       -0.07267825412105
H            1.21961450496925       -4.93148599502654       -0.03149212167967
25
 energy: 19.692090568922 xtb: 6.6.1 (8d0f1dd)
C            3.25241703759465        1.27953648931387        0.08423079382375
N            2.29307888649585        0.20960763478085        0.04324299075798
C            2.53518806048098       -1.11506681730943        0.04020951808386
N            1.44074734422519       -1.84803816188769        0.01086148832256
C            0.42930747786591       -0.95423275409233       -0.00404996352973
C            0.92585905692887        0.34271174173666        0.01687628913417
C            0.07576899634302        1.49621165904817       -0.00324306893482
O            0.43325611908040        2.66031600461202        0.00197569491743
N           -1.26965391269028        1.12938936366136       -0.03275807031902
C           -2.25875647683759        2.19725954137112       -0.05149450847079
C           -1.79657033116607       -0.15700630287086       -0.05127573323947
O           -2.99382269875331       -0.33759510346020       -0.07920200371308
N           -0.90430033896882       -1.21220829890834       -0.03688542290499
C           -1.39745197579079       -2.57174597730130       -0.06034874855890
H            3.76195019878794        1.29569157107811        1.04971550523839
H            3.99487674359755        1.14724352999124       -0.70340023655450
H            2.73010937026857        2.22498340217655       -0.05786351826161
H            3.52340981100383       -1.52958399729753        0.05822573293331
H           -1.72631283797174        3.14563275913355       -0.02804271437066
H           -2.86636906046368        2.12554517076402       -0.95324694856834
H           -2.91626279059225        2.10888021432787        0.81292997157157
H           -1.05013683631358       -3.10746420200476        0.82290505465280
H           -1.02987045985603       -3.08498161970263       -0.94890206058631
H           -2.48526082627618       -2.52986305829352       -0.07300160236226
H            1.21101411094374       -4.92619418669481       -0.03042454291408
25
 energy: 19.688930815576 xtb: 6.6.1 (8d0f1dd)
C            3.25227706412905        1.27976268888223        0.08466780763530
N            2.29299287501579        0.20975651232471        0.04328735593241
C            2.53575617162923       -1.11454365133225        0.03958641020262
N            1.44248885476973       -1.84866198840134        0.01040810775663
C            0.42983012143420       -0.95566096890910       -0.00408354537399
C            0.92580693080879        0.34203245425840        0.01683520704736
C            0.07622089677795        1.49574249018405       -0.00311006867845
O            0.43324169443890        2.65985769442226        0.00196601127917
N           -1.26962077211820        1.12907880489236       -0.03271128875093
C           -2.25846798059199        2.19722610377263       -0.05181471133679
C           -1.79644721612910       -0.15666009164094       -0.05102947551664
O           -2.99358346142461       -0.33825258636583       -0.07897645712005
N           -0.90407729213412       -1.21240352140495       -0.03676868136070
C           -1.39759938123075       -2.57188443787649       -0.06007181893736
H            3.76188316570926        1.29553639530585        1.05012852590523
H            3.99461976815869        1.14792776732158       -0.70316599553339
H            2.72981713732643        2.22526979463072       -0.05693510382777
H            3.52397751136848       -1.52912718039482        0.05704961094621
H           -1.72589990051732        3.14553177394078       -0.02852924471616
H           -2.86598720811364        2.12542236104318       -0.95363352556770
H           -2.91609841738278        2.10919072019242        0.81255671066718
H           -1.05019382943319       -3.10759996609369        0.82317129439590
H           -1.03017087584978       -3.08518298241962       -0.94866620961508
H           -2.48533079536972       -2.52990194303701       -0.07258407989921
H            1.20677960666491       -4.92342764112313       -0.03054293938651
25
 energy: 19.686655672143 xtb: 6.6.1 (8d0f1dd)
C            3.25249955553574        1.28001595396825        0.08431232743156
N            2.29333484943319        0.20974164575058        0.04340058514435
C            2.53589296867086       -1.11422747841484        0.04020315689715
N            1.44409850446062       -1.84924334066259        0.01065819913196
C            0.43030979934701       -0.95672125085363       -0.00414334934915
C            0.92573974095534        0.34166477589583        0.01662449117413
C            0.07667591849444        1.49545187863193       -0.00315936189527
O            0.43311093304118        2.65968900120460        0.00209068092142
N           -1.26962288671578        1.12907670339981       -0.03279524881903
C           -2.25848550209188        2.19713025845725       -0.05152182660597
C           -1.79642324868482       -0.15666501197175       -0.05126104625608
O           -2.99351403137707       -0.33849482198757       -0.07917130531375
N           -0.90402120021969       -1.21203802117028       -0.03692200612238
C           -1.39758192942713       -2.57200676709841       -0.06034233608792
H            3.76203841848978        1.29590308803078        1.04975387178704
H            3.99479610059842        1.14766307641678       -0.70350820799522
H            2.72990536527743        2.22529643400314       -0.05770841809874
H            3.52454724491645       -1.52833584715886        0.05803840166265
H           -1.72616702472164        3.14557903840690       -0.02809013025878
H           -2.86619680370604        2.12551216051262       -0.95325719426952
H           -2.91609849279990        2.10891139301380        0.81289430555728
H           -1.05010241867091       -3.10748667126640        0.82293175779279
H           -1.02985550791363       -3.08501256489741       -0.94893520359836
H           -2.48523680549802       -2.53002027414117       -0.07299767472248
H            1.20257112054221       -4.92235475589731       -0.03006057196038
25
 energy: 19.686113841736 xtb: 6.6.1 (8d0f1dd)
C            3.25251331516629        1.28032570939852        0.08470405162715
N            2.29374831490533        0.20966640232437        0.04340623701730
C            2.53575151249408       -1.11417420995338        0.03970977008745
N            1.44465169536334       -1.84931460490985        0.01048311369091
C            0.43046677414859       -0.95680267576348       -0.00419634123880
C            0.92567157865975        0.34165454347469        0.01646261762934
C            0.07679711323001        1.49536075760179       -0.00305465539782
O            0.43308940876873        2.65968305534450        0.00204983255872
N           -1.26957147708611        1.12921685359824       -0.03275541730599
C           -2.25836405563980        2.19709438545872       -0.05184518718799
C           -1.79643073791350       -0.15722288685984       -0.05098373142417
O           -2.99359599335378       -0.33825129218292       -0.07894520697835
N           -0.90408274196331       -1.21169216430537       -0.03664152947228
C           -1.39757657212902       -2.57218028586732       -0.06003297646427
H            3.76206805751406        1.29563408547200        1.05015960872679
H            3.99474054072075        1.14820501382114       -0.70324414869950
H            2.72954460633878        2.22538706632557       -0.05681854177609
H            3.52490760339757       -1.52764312244699        0.05715507512435
H           -1.72602651425248        3.14553997299559       -0.02858833721971
H           -2.86600169339984        2.12533424763679       -0.95365678441769
H           -2.91611918024727        2.10915492127659        0.81251439404580
H           -1.04987143792219       -3.10736653364115        0.82323379752723
H           -1.02989325995112       -3.08492783620028       -0.94866219662163
H           -2.48520526629683       -2.53006078470806       -0.07252032286178
H            1.20100307738414       -4.92359201571785       -0.03089922482168
