25
 energy: -42.546115971820 xtb: 6.6.1 (8d0f1dd)
C            3.23577839903179        1.19481292330140        0.08585999773257
N            2.30239170805357        0.09442074987940        0.04118017520526
C            2.54940964338137       -1.24082444898986        0.04283777262010
N            1.43132764545634       -1.95520314169045        0.00923196289712
C            0.41814037360258       -1.06009538402940       -0.00804743114876
C            0.93081260592017        0.23437501652701        0.00911144996980
C            0.10087936279891        1.40970116694236       -0.00506347257062
O            0.47849645463213        2.56790668450473        0.00184832073088
N           -1.26024454039904        1.07813945575980       -0.03266268450217
C           -2.23144829656628        2.16441508320957       -0.05026020221673
C           -1.80722385883337       -0.19511766068274       -0.05149186347898
O           -3.00580913956071       -0.36381162757543       -0.08007499963609
N           -0.92585819770989       -1.27046023838956       -0.03830156867795
C           -1.45034052249765       -2.62050241005226       -0.06093206590203
H            3.73437670208610        1.24104577374831        1.05655196718826
H            3.99373332926849        1.08351242552413       -0.69045057333458
H            2.68971375694623        2.12776250472090       -0.06127179316662
H            3.55614465808812       -1.62294766127246        0.06464243745543
H           -1.68723486583469        3.10598845556277       -0.02653135944682
H           -2.83940570868172        2.10410835352414       -0.95257029019312
H           -2.89018600580248        2.08747103487797        0.81439666501455
H           -1.12128802939303       -3.16315053695151        0.82615250974448
H           -1.09879524435782       -3.14258737780362       -0.95176790414700
H           -2.53443856654895       -2.54765450644693       -0.07436186900887
H            1.28335367808536       -3.65889610360180       -0.01491092888917
