25
 energy: 0.000000000000 xtb: 6.6.1 (8d0f1dd)
C            3.23720132972391        1.16630909158653        0.08434468864950
N            2.29877796055224        0.07527476373246        0.03981602671198
C            2.58028186251803       -1.21425391179017        0.03006175752192
N            1.43813944744728       -1.93419254010258        0.00098261751768
C            0.39035684826767       -1.05887462812143       -0.00790371763344
C            0.93510047688824        0.21347817468824        0.01709077332874
C            0.09450143016486        1.40504290868848       -0.00410946993748
O            0.49712746915594        2.54126690785742       -0.00342325656480
N           -1.25076628431515        1.06271869620815       -0.03085477937476
C           -2.21907191394203        2.15522079838987       -0.05001256521996
C           -1.81739470187490       -0.20012724136556       -0.04692818139228
O           -2.99983858926755       -0.37846413507442       -0.07008877579474
N           -0.92618577614240       -1.30210203518959       -0.03682761236648
C           -1.46982251276835       -2.64643077634382       -0.06029819901142
H            3.71247229913541        1.21471443890471        1.06488839270555
H            4.00791460421487        1.03430799217987       -0.67357688121503
H            2.69909982127087        2.09770098766290       -0.09130154035862
H            3.56654087521359       -1.63682977417947        0.04233139674524
H           -1.67107945562430        3.09322822573871       -0.02552706696334
H           -2.82428927394145        2.09428605349656       -0.95318074103337
H           -2.87644002486466        2.07745706351925        0.81450059976605
H           -1.17061985538665       -3.19584861009707        0.83242224714061
H           -1.14560246782873       -3.17511580834413       -0.95688266944647
H           -2.55549768731684       -2.55659960601237       -0.07459039105944
H            1.38130842369251       -2.94313824728853       -0.01389874052104
25
 energy: -0.623245519299 xtb: 6.6.1 (8d0f1dd)
C            3.23527474480911        1.18550487979338        0.08489986200843
N            2.30041904380484        0.08786972491297        0.03875046351073
C            2.58425803882010       -1.25176172947281        0.03203372986485
N            1.42056074769380       -2.00696715813188        0.00242904761845
C            0.40388932701283       -1.07497921670079       -0.00765810115122
C            0.92764267864560        0.21703046913462        0.01616170170714
C            0.10041955907679        1.40487286800976       -0.00415187040922
O            0.49371667787194        2.57297268650183       -0.00187349538727
N           -1.26186494078278        1.06625308435996       -0.03152259552771
C           -2.22959940382019        2.16051757522896       -0.05037586337016
C           -1.81682858279659       -0.18801865893821       -0.04868608655831
O           -3.01278435993270       -0.37172009057239       -0.07340387336340
N           -0.92761419812754       -1.29154727857248       -0.03731536387161
C           -1.45503890503617       -2.63096499579447       -0.06063485115976
H            3.72840799394985        1.23783379666102        1.06009290864360
H            4.00086848047938        1.06786795469002       -0.68397621713151
H            2.69976369921590        2.12210492478237       -0.07857186672800
H            3.57013201158148       -1.64927015572549        0.04737079620831
H           -1.68122274947101        3.10004394688343       -0.02624041580533
H           -2.83802359068028        2.10446874668805       -0.95302276802828
H           -2.88964792168171        2.08775623330925        0.81384215769377
H           -1.13513167311250       -3.17242463655100        0.83126292464986
H           -1.11131888980161       -3.15108074529352       -0.95643827490605
H           -2.53976891594120       -2.54836047849652       -0.07434345643621
H            1.34570543319507       -3.08897295796202       -0.01159457987656
25
 energy: 9.665132815065 xtb: 6.6.1 (8d0f1dd)
C            3.23207562089499        1.19569919292819        0.08426267185983
N            2.30045869785011        0.09071249488199        0.03767485157851
C            2.58039399114016       -1.28347885707225        0.03610297714600
N            1.40052013484815       -2.07328136591177        0.00524089504467
C            0.41602428373768       -1.09014028248039       -0.00681091019979
C            0.92074313137768        0.21297390043386        0.01507404930022
C            0.10537407653522        1.39560481951169       -0.00393437964978
O            0.48252936646932        2.57696241622457        0.00081287122267
N           -1.27467884991332        1.07576197440399       -0.03256268955061
C           -2.23993814023761        2.17224331948875       -0.05104120524768
C           -1.81306631474012       -0.17158814722171       -0.05097073714313
O           -3.01294236126258       -0.36556044256047       -0.07822426185409
N           -0.92807238795550       -1.27174501608100       -0.03767800536981
C           -1.43550434084686       -2.61121035631257       -0.06115127268725
H            3.74589376208191        1.25406987730139        1.05116634241131
H            3.98924581223956        1.10515350276675       -0.69984108475786
H            2.69254614125715        2.13620354401568       -0.06039427731247
H            3.57269879858552       -1.64848497114231        0.05558550923802
H           -1.69285835049796        3.11344509705771       -0.02738512059458
H           -2.85189174526850        2.11771115841169       -0.95241533758199
H           -2.90251913805539        2.10131596845664        0.81243223794859
H           -1.09402830079166       -3.14465966090125        0.82932338972867
H           -1.07196155205724       -3.12246516017009       -0.95594214196305
H           -2.51997327377265       -2.54693385016398       -0.07408970493303
H            1.31114524335437       -3.22928036712109       -0.00820075443878
25
 energy: 18.270662413878 xtb: 6.6.1 (8d0f1dd)
C            3.23053195952890        1.19966438462214        0.08349842383571
N            2.30164417357275        0.09155721150261        0.03785549391545
C            2.57691047541189       -1.29488609395323        0.03962175892398
N            1.39030455385931       -2.09995938803995        0.00709077563229
C            0.42057720188655       -1.09721376465277       -0.00596555932950
C            0.91874636791361        0.20892790238131        0.01466741571213
C            0.10776888985683        1.39186545514308       -0.00345399458938
O            0.47639068730615        2.57408813023042        0.00256809638757
N           -1.28104535550954        1.08459949238922       -0.03329305794916
C           -2.24441429336694        2.18100899655821       -0.05171629072493
C           -1.81232247751317       -0.16344551874454       -0.05252210784289
O           -3.01180390406773       -0.36551210904130       -0.08150743946014
N           -0.92820270004114       -1.25900777095814       -0.03769155835926
C           -1.42572325550286       -2.60172413279662       -0.06135882873199
H            3.75591971821688        1.25677917185909        1.04438874013992
H            3.97941279690250        1.12444917630051       -0.71073292991070
H            2.68568170242942        2.14061451949472       -0.04812714992644
H            3.57614669980223       -1.64100729873491        0.06163971542715
H           -1.69871650537476        3.12276590045465       -0.02847562263854
H           -2.85743273476422        2.12512427526807       -0.95254395785463
H           -2.90732265826481        2.10927236907862        0.81173806447642
H           -1.07404062059569       -3.12983500294735        0.82856610635740
H           -1.05313087644425       -3.10724216068864       -0.95595089118504
H           -2.51030513368267       -2.55143339720365       -0.07379011052491
H            1.29663959341321       -3.31042155877755       -0.00747117958593
25
 energy: 24.444812127569 xtb: 6.6.1 (8d0f1dd)
C            3.23126328409478        1.20248754087710        0.08336048028664
N            2.30346759334041        0.09422705964116        0.03822088207872
C            2.57557830023833       -1.29497091019482        0.04178825442510
N            1.38664230526408       -2.10455279375347        0.00783256556437
C            0.42175325164786       -1.09897736528216       -0.00598693272125
C            0.91908875127659        0.20767485619093        0.01374633847085
C            0.10869787908426        1.39228852775436       -0.00347792098310
O            0.47315720483732        2.57277212580717        0.00331593537692
N           -1.28309198300897        1.08953991431035       -0.03372845889666
C           -2.24596894692245        2.18438882330437       -0.05196149518796
C           -1.81292218409227       -0.16104149873420       -0.05324039138994
O           -3.01132414659992       -0.36695625575242       -0.08266389837090
N           -0.92824244093168       -1.25253032341070       -0.03775741504489
C           -1.42342919439941       -2.59817061063047       -0.06133840371183
H            3.76045684842107        1.25695886523260        1.04144160411927
H            3.97568220096081        1.13145936614884       -0.71431377070829
H            2.68493609684513        2.14324818318861       -0.04344719328485
H            3.57844106742794       -1.63183818034244        0.06418011077986
H           -1.70143913786526        3.12643333504358       -0.02900471595987
H           -2.85915056222692        2.12722770186299       -0.95263805833105
H           -2.90849207802454        2.11174154445122        0.81179684207483
H           -1.06923550632616       -3.12384056354768        0.82841587987085
H           -1.04903700069423       -3.10129746237413       -0.95596380475844
H           -2.50776633121683       -2.55326416181722       -0.07345275075180
H            1.29314903384250       -3.36397892922952       -0.00808977075200
25
 energy: 33.197930036830 xtb: 6.6.1 (8d0f1dd)
C            3.23330953477921        1.20647642811821        0.08342227600549
N            2.30575196905941        0.09960131401169        0.03886948991076
C            2.57489439253938       -1.28861858670622        0.04442532975319
N            1.38526757835536       -2.09615680142976        0.00883451358749
C            0.42145048796110       -1.09718536018391       -0.00656679632385
C            0.92031641883772        0.20918096948701        0.01233014205478
C            0.10884471194549        1.39593345335008       -0.00354488137132
O            0.47025562180747        2.57381582803436        0.00384528300122
N           -1.28353827456613        1.09369026751487       -0.03402385267321
C           -2.24694218374933        2.18582001444818       -0.05205923490538
C           -1.81437413915912       -0.16033998312732       -0.05345380175108
O           -3.01135744545330       -0.36745603580372       -0.08285969999854
N           -0.92835678646280       -1.24670430804678       -0.03789666366099
C           -1.42323954443342       -2.59596647419639       -0.06128152551573
H            3.76290280948580        1.25813041068296        1.04024849577334
H            3.97512652850228        1.13483199590678       -0.71501230307912
H            2.68751197881802        2.14702850854340       -0.04214558838379
H            3.57988294897522       -1.61999712010996        0.06429474374616
H           -1.70434793698099        3.12865471063662       -0.02925617075231
H           -2.86018390571951        2.12763305102142       -0.95266108894471
H           -2.90913957531946        2.11236183053403        0.81196549281048
H           -1.06840724241938       -3.11975643920349        0.82837081113633
H           -1.04869155780258       -3.09742144358815       -0.95592939374530
H           -2.50725957340555       -2.55299084121127       -0.07318860324325
H            1.29253748937756       -3.44153659993861       -0.00969306123610
25
 energy: 38.671290057518 xtb: 6.6.1 (8d0f1dd)
C            3.23669363233642        1.21652612326637        0.08303559523819
N            2.30861036608149        0.11261201127442        0.04019336702051
C            2.56973861172780       -1.27680572411527        0.05124708597132
N            1.38058107353071       -2.08580411127120        0.01315940550268
C            0.42383399429059       -1.09278355492858       -0.00695797382129
C            0.92090917607981        0.21600378925192        0.01016000056891
C            0.10966461807636        1.40397697729676       -0.00324994537954
O            0.46172849572483        2.57872309901855        0.00442554927474
N           -1.28594372212582        1.10411679957146       -0.03445052782765
C           -2.25014488072888        2.19080982872448       -0.05226987250857
C           -1.81474061984061       -0.15627806306934       -0.05393988108881
O           -3.00954737359761       -0.36717121244828       -0.08360085444381
N           -0.92750765484700       -1.23160901470346       -0.03819898904176
C           -1.41929325646288       -2.58823669905679       -0.06124221298935
H            3.76809280063933        1.26272115686541        1.03728571289021
H            3.97324719763891        1.14487412945747       -0.71790129761537
H            2.69181020351301        2.15753194099268       -0.03890248315181
H            3.58022556134474       -1.59405544321502        0.06462026947474
H           -1.71099870085461        3.13510937486608       -0.02970207903996
H           -2.86341217209827        2.12994250906428       -0.95282670347707
H           -2.91181207733579        2.11504797110447        0.81220463398491
H           -1.06058882125816       -3.10873053344791        0.82725353645772
H           -1.04165590120138       -3.08678072355292       -0.95488454166176
H           -2.50295235227222       -2.55255517989188       -0.07287173189296
H            1.28567610661165       -3.63815666230964       -0.01555215024966
25
 energy: 29.816305333112 xtb: 6.6.1 (8d0f1dd)
C            3.24186894203443        1.23048434663699        0.08279911037064
N            2.31045229432305        0.13368078712642        0.04211212562817
C            2.55069324111882       -1.24525587453351        0.05651204439621
N            1.37748767387865       -2.04139347238029        0.01961076986043
C            0.42897645671602       -1.07328262036449       -0.00723418494616
C            0.92379236904460        0.23627034467846        0.00730659451921
C            0.11024283518664        1.42296334825909       -0.00267656857703
O            0.44779033381999        2.58663987483558        0.00479979629148
N           -1.28538654845613        1.12166378775579       -0.03474439199968
C           -2.25289419502127        2.19718279792894       -0.05250791449923
C           -1.81207846482034       -0.15413968522247       -0.05426343601856
O           -3.00301528461203       -0.36683237723292       -0.08427838384424
N           -0.92265386742727       -1.20790973251085       -0.03797808196878
C           -1.41274109581310       -2.57857425733147       -0.06098434708590
H            3.77213133171030        1.26663996929732        1.03396020887342
H            3.97031400225719        1.15473195141645       -0.72016127466421
H            2.69737134352346        2.17094684141541       -0.03562848336701
H            3.56918720440892       -1.55607476604965        0.06485500217569
H           -1.71855004878529        3.14291705389302       -0.03016081578515
H           -2.86585262488524        2.13150272124073       -0.95300843073869
H           -2.91385564110171        2.11702354760956        0.81232206645965
H           -1.04928716251403       -3.09684340372096        0.82367718782974
H           -1.03122647720349       -3.07512999487943       -0.95124254694265
H           -2.49626164574058       -2.55319381766685       -0.07251111330404
H            1.27570933333079       -3.97498858145682       -0.02354102046875
25
 energy: 20.714220187532 xtb: 6.6.1 (8d0f1dd)
C            3.24167179315712        1.23703434640672        0.08356686866800
N            2.29838632677338        0.14416495710190        0.04531736564674
C            2.51254136121688       -1.18596343637067        0.04715530715869
N            1.40529226378069       -1.92095481710127        0.01987762319856
C            0.43339378995080       -1.01965336632892       -0.00548325490537
C            0.92910698056047        0.28134749145483        0.00791591964568
C            0.09972296508790        1.45828537804908       -0.00455126131324
O            0.44135468121188        2.60703653340471        0.00530681571206
N           -1.27202326049678        1.13067797225016       -0.03469140203520
C           -2.25122887068696        2.19739227336010       -0.05235187216361
C           -1.80443625839034       -0.16463827168978       -0.05353357931330
O           -2.99501795412029       -0.35593600207630       -0.08307229292018
N           -0.91037184125220       -1.20146725103482       -0.03606021075215
C           -1.40725101458036       -2.57843106152855       -0.06035782218161
H            3.76694152133075        1.26762684906785        1.03636635467495
H            3.97165680630907        1.14861193136564       -0.71661410089600
H            2.70312920249896        2.18007793539599       -0.03912497896042
H            3.53180884293306       -1.54174141647933        0.06451556745725
H           -1.72272121839807        3.14640657669283       -0.03005395523906
H           -2.86433958597019        2.12913144331669       -0.95238688509212
H           -2.91280323443629        2.11429783882274        0.81148106155156
H           -1.04300087673077       -3.09933484942967        0.82011657497565
H           -1.02488514695239       -3.07686222891068       -0.94676255146145
H           -2.49212613934228       -2.54916333730354       -0.07239698930391
H            1.27741317151842       -4.35891669969168       -0.02714438995694
25
 energy: 20.109776184656 xtb: 6.6.1 (8d0f1dd)
C            3.24667771986392        1.25699919075348        0.08344571938707
N            2.29616157281539        0.17074553258278        0.04388695608750
C            2.51253227867885       -1.15219787493598        0.04494737339691
N            1.42667226805075       -1.87957307211473        0.01628865561690
C            0.43194912597128       -0.98448043536281       -0.00608386893963
C            0.92759276057490        0.31735841327337        0.00863985195094
C            0.08785302412284        1.48355061402581       -0.00457530621602
O            0.43237745199026        2.64396966605384        0.00577372668589
N           -1.26921529782525        1.13277897437504       -0.03393200857358
C           -2.25414274624200        2.19701271215496       -0.05172862756792
C           -1.80187807098668       -0.16474442623096       -0.05217297875933
O           -2.99663513964294       -0.34185990926806       -0.08082363351342
N           -0.91022379972882       -1.20132316374289       -0.03592455967729
C           -1.40360503221970       -2.57615554868493       -0.06009486153727
H            3.76276675057492        1.27948006930647        1.04332194146917
H            3.98370052237860        1.14583743207653       -0.70977473677567
H            2.71678358074478        2.20169133584684       -0.05013021534581
H            3.52220956306253       -1.53091682948783        0.06398436580362
H           -1.72626960862906        3.14750660603715       -0.02881091833342
H           -2.86474145713943        2.12599590376923       -0.95279765071353
H           -2.91366032463016        2.11009580847102        0.81270058118801
H           -1.04665818634565       -3.10248274703088        0.82180480044453
H           -1.02800860768457       -3.07959612370219       -0.94804867497177
H           -2.48850912472403       -2.53869048646910       -0.07224941568920
H            1.26848508194166       -4.67197285295213       -0.03061260322214
25
 energy: 19.756264760794 xtb: 6.6.1 (8d0f1dd)
C            3.25153303670155        1.27644850919883        0.08440371005658
N            2.29630626691869        0.19891333878528        0.04326276468194
C            2.52486267475154       -1.12697112626936        0.04128077785069
N            1.43405169369514       -1.85838826831677        0.01344087558166
C            0.42808748525606       -0.95953892086614       -0.00465685991890
C            0.92587373743665        0.33940273259129        0.01309291171570
C            0.07920210273161        1.49461543349724       -0.00321308719687
O            0.43243569511015        2.65915799645309        0.00307955131584
N           -1.26866974800480        1.13206286012548       -0.03303247368814
C           -2.25695213386789        2.19739425355503       -0.05181755674013
C           -1.79977107336520       -0.16143253887782       -0.05100582704773
O           -2.99762520539427       -0.33297185708155       -0.07936635591111
N           -0.90984484270153       -1.20552309221309       -0.03551378233583
C           -1.39987872285834       -2.57351320880855       -0.05997395138335
H            3.76193862801354        1.29301203557001        1.04927959561590
H            3.99329319516561        1.14838373160485       -0.70479991881401
H            2.72515803482056        2.22011045888499       -0.05585969610153
H            3.52283091569046       -1.52519149221603        0.05833755040484
H           -1.72684547528243        3.14706461370221       -0.02847373320158
H           -2.86558362878214        2.12582171449099       -0.95343108700684
H           -2.91556641464086        2.10963817333114        0.81238785696342
H           -1.04884769279696       -3.10517348170835        0.82311676318751
H           -1.02858495554355       -3.08215598278219       -0.94865591310593
H           -2.48657414980115       -2.53289401804692       -0.07280684089041
H            1.24138488171997       -4.88924307585964       -0.03204136183714
25
 energy: 19.703142956172 xtb: 6.6.1 (8d0f1dd)
C            3.25268361372260        1.27926457788067        0.08412676373452
N            2.29494648846403        0.20642803268797        0.04326451217860
C            2.53017374426381       -1.11888206934838        0.04078529061971
N            1.43659403462931       -1.84891501967993        0.01210038614471
C            0.42787676165784       -0.95221241759921       -0.00425452221798
C            0.92574870231556        0.34418623765641        0.01551028806181
C            0.07599949570740        1.49691642940450       -0.00323935463785
O            0.43279811360284        2.66144925335706        0.00221127128655
N           -1.26924253633357        1.13087985477852       -0.03287801311700
C           -2.25851003417311        2.19720959892521       -0.05146859243324
C           -1.79811420292847       -0.15986144579314       -0.05125259587702
O           -2.99594496865637       -0.33442457885944       -0.07927523157577
N           -0.90697007345437       -1.20881733495414       -0.03623768679885
C           -1.39774225555291       -2.57223552105383       -0.06026446817075
H            3.76199714066379        1.29515529300722        1.04973392247324
H            3.99532015693780        1.14714339195033       -0.70369239767494
H            2.72849403163337        2.22337317180484       -0.05784729123195
H            3.52232784295293       -1.52786508556222        0.05882138529434
H           -1.72675193743387        3.14598930845980       -0.02807675405598
H           -2.86650067535945        2.12553497208042       -0.95318320755054
H           -2.91635704194027        2.10892720562175        0.81293609089202
H           -1.04928360169221       -3.10627427535080        0.82302050877830
H           -1.02900843607197       -3.08360466757967       -0.94890385581157
H           -2.48518174252617       -2.53024297462484       -0.07295005996320
H            1.22686168454389       -4.93009314846507       -0.03195247615256
25
 energy: 19.693924379554 xtb: 6.6.1 (8d0f1dd)
C            3.25237403895050        1.27979447882476        0.08450922814328
N            2.29398224283500        0.20842697373184        0.04319612160991
C            2.53293573330754       -1.11678715137854        0.03988420103151
N            1.43818189600523       -1.84819282013227        0.01136322454621
C            0.42843205883960       -0.95265050374409       -0.00407238647562
C            0.92579083212454        0.34366506637965        0.01636061710064
C            0.07563968016172        1.49665226491461       -0.00317478097072
O            0.43312923127965        2.66098058480985        0.00200450690388
N           -1.26942342403209        1.13010260528170       -0.03274971024897
C           -2.25846961369732        2.19735530109013       -0.05173866847182
C           -1.79721375623330       -0.15857029609507       -0.05104456753234
O           -2.99478374951519       -0.33592893037615       -0.07904686254432
N           -0.90555104934901       -1.21079840187297       -0.03638445012045
C           -1.39766411739131       -2.57198018040465       -0.06009006514760
H            3.76181035679065        1.29563027587870        1.05006659218625
H            3.99497875198500        1.14789496396298       -0.70315951909762
H            2.72920225089184        2.22464570753997       -0.05721750155896
H            3.52287045706602       -1.52877093376696        0.05741703446200
H           -1.72617516589860        3.14584347085401       -0.02844509362987
H           -2.86608499577279        2.12551377227653       -0.95355780215654
H           -2.91616844321448        2.10920051483920        0.81263104985769
H           -1.04999339386983       -3.10708151949478        0.82312485988899
H           -1.02983547034678       -3.08448990511803       -0.94867174944488
H           -2.48536443776120       -2.52994101175856       -0.07267824737818
H            1.21961439181701       -4.93148553749780       -0.03149211875792
25
 energy: 19.692066152215 xtb: 6.6.1 (8d0f1dd)
C            3.25241673584498        1.27953637060224        0.08423078600907
N            2.29307867375074        0.20960761533407        0.04324298674602
C            2.53518782527370       -1.11506671385682        0.04020951435334
N            1.44074721055689       -1.84803799043215        0.01086148731486
C            0.42930743803603       -0.95423266556143       -0.00404996315399
C            0.92585897103039        0.34271170994087        0.01687628756844
C            0.07576898931340        1.49621152023406       -0.00324306863394
O            0.43325607888417        2.66031575779574        0.00197569473413
N           -1.26965379489553        1.12938925887994       -0.03275806727982
C           -2.25875626727682        2.19725933751585       -0.05149450369328
C           -1.79657016448557       -0.15700628830428       -0.05127572848226
O           -2.99382242099526       -0.33759507213912       -0.07920199636495
N           -0.90430025507050       -1.21220818644322       -0.03688541948287
C           -1.39745184613931       -2.57174573870228       -0.06034874295992
H            3.76194984976528        1.29569145086766        1.04971540784888
H            3.99487637296465        1.14724342355336       -0.70340017129510
H            2.73010911697706        2.22498319574914       -0.05786351289320
H            3.52340948411225       -1.52958385538723        0.05822572753130
H           -1.72631267780952        3.14563246729101       -0.02804271176894
H           -2.86636879453040        2.12554497356220       -0.95324686012890
H           -2.91626252002998        2.10888001867218        0.81292989615032
H           -1.05013673888498       -3.10746391370338        0.82290497830609
H           -1.02987036430768       -3.08498133348712       -0.94890197254997
H           -2.48526059570100       -2.52986282358028       -0.07300159558939
H            1.21101399858942       -4.92619372965702       -0.03042454009138
25
 energy: 19.688906354495 xtb: 6.6.1 (8d0f1dd)
C            3.25227676239236        1.27976257014962        0.08466779978007
N            2.29299266227866        0.20975649286412        0.04328735191634
C            2.53575593636924       -1.11454354792817        0.03958640652991
N            1.44248872093986       -1.84866181688793        0.01040810679100
C            0.42983008155583       -0.95566088024569       -0.00408354499513
C            0.92580684491515        0.34203242252564        0.01683520548544
C            0.07622088970640        1.49574235141347       -0.00311006838991
O            0.43324165424401        2.65985744764850        0.00196601109677
N           -1.26962065432652        1.12907870013975       -0.03271128571607
C           -2.25846777105798        2.19722589992046       -0.05181470652957
C           -1.79644704946002       -0.15666007710648       -0.05102947078228
O           -2.99358318368875       -0.33825255498375       -0.07897644979285
N           -0.90407720825649       -1.21240340892172       -0.03676867794941
C           -1.39759925156560       -2.57188419926463       -0.06007181336407
H            3.76188281669282        1.29553627510980        1.05012842847740
H            3.99461939754963        1.14792766082022       -0.70316593029572
H            2.72981688406204        2.22526958817674       -0.05693509854550
H            3.52397718442423       -1.52912703852690        0.05704960565332
H           -1.72589974039341        3.14553148210761       -0.02852924206930
H           -2.86598694221579        2.12542216385275       -0.95363343709239
H           -2.91609814683576        2.10919052450792        0.81255663528056
H           -1.05019373199930       -3.10759967777972        0.82317121802449
H           -1.03017078027356       -3.08518269618543       -0.94866612160062
H           -2.48533056478805       -2.52990170832016       -0.07258407316507
H            1.20677949470345       -4.92342718434201       -0.03054293655283
25
 energy: 19.686631134336 xtb: 6.6.1 (8d0f1dd)
C            3.25249925377841        1.28001583521214        0.08431231960931
N            2.29333463666434        0.20974162629137        0.04340058111777
C            2.53589273339818       -1.11422737504010        0.04020315316722
N            1.44409837048141       -1.84924316909524        0.01065819814312
C            0.43030975942413       -0.95672116209185       -0.00414334896474
C            0.92573965506793        0.34166474419718        0.01662448963176
C            0.07667591138067        1.49545173988831       -0.00315936160215
O            0.43311089285842        2.65968875444649        0.00209068072745
N           -1.26962276892391        1.12907659864740       -0.03279524577638
C           -2.25848529255625        2.19713005461398       -0.05152182182593
C           -1.79642308201796       -0.15666499743683       -0.05126104150023
O           -2.99351375364766       -0.33849479058302       -0.07917129796847
N           -0.90402111634727       -1.21203790872096       -0.03692200269687
C           -1.39758179976360       -2.57200652847520       -0.06034233048954
H            3.76203806945894        1.29590296780071        1.04975377439397
H            3.99479572997300        1.14766296993998       -0.70350814272580
H            2.72990511200485        2.22529622754669       -0.05770841274472
H            3.52454691791934       -1.52833570536436        0.05803839627802
H           -1.72616686457295        3.14557874656934       -0.02809012765266
H           -2.86619653778874        2.12551196331386       -0.95325710582913
H           -2.91609822225287        2.10891119735521        0.81289423013934
H           -1.05010232124550       -3.10748638296294        0.82293168144361
H           -1.02985541236667       -3.08501227867903       -0.94893511555895
H           -2.48523657492507       -2.53002003941334       -0.07299766794997
H            1.20257100897120       -4.92235429921573       -0.03006056917145
25
 energy: 19.686089300452 xtb: 6.6.1 (8d0f1dd)
C            3.25251301340768        1.28032559061367        0.08470404376856
N            2.29374810209812        0.20966638287214        0.04340623299020
C            2.53575127723452       -1.11417410658358        0.03970976640329
N            1.44465156133281       -1.84931443333589        0.01048311271832
C            0.43046673421115       -0.95680258699415       -0.00419634084948
C            0.92567149277867        0.34165451177699        0.01646261610199
C            0.07679710610500        1.49536061886662       -0.00305465511442
O            0.43308936858797        2.65968280858694        0.00204983236854
N           -1.26957135929901        1.12921674883283       -0.03275541426704
C           -2.25836384611543        2.19709418161877       -0.05184518237795
C           -1.79643057124595       -0.15722287227316       -0.05098372669405
O           -2.99359571561676       -0.33825126080096       -0.07894519965405
N           -0.90408265808518       -1.21169205188814       -0.03664152607279
C           -1.39757644246598       -2.57218004722801       -0.06003297089459
H            3.76206770848047        1.29563396526689        1.05015951129607
H            3.99474017010049        1.14820490729406       -0.70324408345458
H            2.72954435309967        2.22538685986071       -0.05681853650463
H            3.52490727636702       -1.52764298071676        0.05715506982167
H           -1.72602635411682        3.14553968116166       -0.02858833456737
H           -2.86600142750064        2.12533405045454       -0.95365669594022
H           -2.91611890969832        2.10915472559541        0.81251431866311
H           -1.04987134051821       -3.10736624534884        0.82323372115002
H           -1.02989316440066       -3.08492754998976       -0.94866210860755
H           -2.48520503572681       -2.53006054997647       -0.07252031613356
H            1.20100296595861       -4.92359155892149       -0.03089922195494
