25
 energy: 0.000000000000 xtb: 6.6.1 (8d0f1dd)
C            3.23720132972391        1.16630909158653        0.08434468864950
N            2.29877796055224        0.07527476373246        0.03981602671198
C            2.58028186251803       -1.21425391179017        0.03006175752192
N            1.43813944744728       -1.93419254010258        0.00098261751768
C            0.39035684826767       -1.05887462812143       -0.00790371763344
C            0.93510047688824        0.21347817468824        0.01709077332874
C            0.09450143016486        1.40504290868848       -0.00410946993748
O            0.49712746915594        2.54126690785742       -0.00342325656480
N           -1.25076628431515        1.06271869620815       -0.03085477937476
C           -2.21907191394203        2.15522079838987       -0.05001256521996
C           -1.81739470187490       -0.20012724136556       -0.04692818139228
O           -2.99983858926755       -0.37846413507442       -0.07008877579474
N           -0.92618577614240       -1.30210203518959       -0.03682761236648
C           -1.46982251276835       -2.64643077634382       -0.06029819901142
H            3.71247229913541        1.21471443890471        1.06488839270555
H            4.00791460421487        1.03430799217987       -0.67357688121503
H            2.69909982127087        2.09770098766290       -0.09130154035862
H            3.56654087521359       -1.63682977417947        0.04233139674524
H           -1.67107945562430        3.09322822573871       -0.02552706696334
H           -2.82428927394145        2.09428605349656       -0.95318074103337
H           -2.87644002486466        2.07745706351925        0.81450059976605
H           -1.17061985538665       -3.19584861009707        0.83242224714061
H           -1.14560246782873       -3.17511580834413       -0.95688266944647
H           -2.55549768731684       -2.55659960601237       -0.07459039105944
H            1.38130842369251       -2.94313824728853       -0.01389874052104
25
 energy: -5.924309482621 xtb: 6.6.1 (8d0f1dd)
C            3.23839169707804        1.17295453881349        0.08607878629149
N            2.30371178245119        0.09396787977395        0.03496086683312
C            2.59660217287177       -1.25514712547489        0.03258955770442
N            1.41531270411554       -1.96954356359856        0.00170341327729
C            0.40253159305509       -1.07230883208061       -0.00801077202402
C            0.91875555403746        0.21786325999314        0.01455224162388
C            0.11635775551193        1.38480350905569       -0.00487961691917
O            0.49395517448578        2.56002578441708       -0.00386754351184
N           -1.26874641509782        1.05403860122027       -0.03140463441416
C           -2.22254312787634        2.15209247961017       -0.04974635575685
C           -1.81535365987801       -0.19283626727397       -0.04769693376526
O           -3.01424624601486       -0.38178164033710       -0.07099467371437
N           -0.93743698106129       -1.29677459674193       -0.03743455047061
C           -1.46787376359599       -2.63854821028628       -0.06057622193783
H            3.72045444365248        1.22319539713066        1.06652292708150
H            4.00836943210922        1.04527679232965       -0.67713755778642
H            2.69848583555603        2.10400489911619       -0.08675797468136
H            3.57630302527052       -1.65974523691049        0.04653521245020
H           -1.66757650568492        3.08803609636266       -0.02555477598920
H           -2.82872196468848        2.09670343588273       -0.95361578679903
H           -2.88027592286632        2.07995896904981        0.81591795677767
H           -1.16027721054506       -3.18903213907684        0.83170098999845
H           -1.13570209723342       -3.16845381725752       -0.95661337012532
H           -2.55275901001525       -2.55232433942294       -0.07474563001107
H            1.35194309260053       -2.99414502660629       -0.01092311574937
25
 energy: -4.437193594583 xtb: 6.6.1 (8d0f1dd)
C            3.23613710195132        1.17348224671246        0.08626565568615
N            2.30412646541849        0.08622920368427        0.03419220493971
C            2.59292356163539       -1.27163442032593        0.03190164095838
N            1.40894636978226       -2.00112153724800        0.00282800986629
C            0.40560701492343       -1.08451755926024       -0.00831230460469
C            0.91849410442308        0.20781290107760        0.01304810326986
C            0.11700425145360        1.38041036976054       -0.00529749859743
O            0.49294457413684        2.55769058378716       -0.00353527630003
N           -1.26990981721966        1.05575070375632       -0.03188235743808
C           -2.22463968977137        2.15333226623232       -0.04970309143454
C           -1.81612493706535       -0.19068797345298       -0.04857664246426
O           -3.01544378969323       -0.38025469558019       -0.07192008427942
N           -0.93705000983165       -1.29337957015959       -0.03799068589238
C           -1.46436144581478       -2.63513790858648       -0.06084084408728
H            3.72299433690087        1.22734495357033        1.06480045336553
H            4.00553416510384        1.05467057382462       -0.67950113739060
H            2.69571991150522        2.10677698027841       -0.08165705264780
H            3.57807889605700       -1.66283222883880        0.05643969342688
H           -1.66973577295496        3.08920932117064       -0.02552682933755
H           -2.83133022669366        2.09807143159116       -0.95343357249424
H           -2.88254914946730        2.08111616645829        0.81607871726341
H           -1.15143351940468       -3.18277743027140        0.83137981414304
H           -1.12749355076235       -3.16223614753437       -0.95680524884680
H           -2.54889472032195       -2.55159938636820       -0.07468382333286
H            1.32746556451125       -3.04832181914078       -0.00538063072369
25
 energy: -1.603300902901 xtb: 6.6.1 (8d0f1dd)
C            3.23417048707102        1.17515402004562        0.08652445236536
N            2.30516033351420        0.08073454872376        0.03547618032843
C            2.58964879080519       -1.28544128635527        0.03357049188005
N            1.40412566086755       -2.03028713242197        0.00342563386752
C            0.40944417912542       -1.09485104554671       -0.00839924746731
C            0.91989741339595        0.20172349228971        0.01040601838665
C            0.11742505508743        1.37875556296383       -0.00533834711044
O            0.49230037110941        2.55673452311782       -0.00269409025955
N           -1.27093954796777        1.05827166592283       -0.03214217528416
C           -2.22603449502017        2.15629484425474       -0.05007032874125
C           -1.81625369332281       -0.18857673920169       -0.04906598932075
O           -3.01579553938534       -0.37894172890771       -0.07304948668419
N           -0.93598345645472       -1.29016328172284       -0.03807911704398
C           -1.46091141398974       -2.63245224386857       -0.06070614011842
H            3.72623214400565        1.23141359928673        1.06277926773246
H            4.00148074747209        1.06345981142487       -0.68282381488264
H            2.69285385094534        2.11014233060472       -0.07564015414088
H            3.58194056780632       -1.65758873780843        0.06324385966517
H           -1.67134009895322        3.09234768730016       -0.02600698369813
H           -2.83323064385103        2.10202920832903       -0.95365922444300
H           -2.88473021803245        2.08537809973950        0.81539916978013
H           -1.14374883652656       -3.17821552583749        0.83127098644350
H           -1.12033198876270       -3.15765730143705       -0.95645086637066
H           -2.54519459978248       -2.55207144183120       -0.07426858894671
H            1.31143118945475       -3.10643002262625       -0.00525217869566
25
 energy: 2.786520926667 xtb: 6.6.1 (8d0f1dd)
C            3.23306730352309        1.17649820521990        0.08571201437686
N            2.30601166069691        0.07628845191304        0.03666135648240
C            2.58606235274286       -1.29855623709493        0.03748656646060
N            1.40012373974262       -2.05838124094957        0.00537626819952
C            0.41321879382185       -1.10423159836893       -0.00733155408875
C            0.92074486974992        0.19828415612171        0.00998598867216
C            0.11703875690587        1.38009164577800       -0.00405118624313
O            0.48933040440771        2.55838001422863        0.00030793069718
N           -1.27241892183605        1.06280798625781       -0.03204171561207
C           -2.23002798950772        2.15947789985295       -0.05016638463570
C           -1.81561406179858       -0.18463648803550       -0.05004530862861
O           -3.01536899206653       -0.37504648002678       -0.07684115236922
N           -0.93480008066989       -1.28579034964289       -0.03786200755124
C           -1.45717133665239       -2.62883703874932       -0.06122060702492
H            3.73137904090240        1.23383092491365        1.05924434507483
H            3.99780365454219        1.07107716839049       -0.68779492048263
H            2.68982315284684        2.11258475671777       -0.06881973369733
H            3.58484587352613       -1.65283873657105        0.06523038305036
H           -1.67939641907494        3.09795259462981       -0.02621844431900
H           -2.83779618744329        2.10390839575176       -0.95333809432970
H           -2.88958593614181        2.08749807045650        0.81466859250714
H           -1.13710871561714       -3.17386449188601        0.83032004847087
H           -1.11304354589523       -3.15269642862785       -0.95654091318483
H           -2.54094975037676       -2.55169329914748       -0.07527820645636
H            1.31374060054729       -3.17112731197975       -0.00622786895234
25
 energy: 21.495166237906 xtb: 6.6.1 (8d0f1dd)
C            3.23577839903179        1.19481292330140        0.08585999773257
N            2.30239170805357        0.09442074987940        0.04118017520526
C            2.54940964338137       -1.24082444898986        0.04283777262010
N            1.43132764545634       -1.95520314169045        0.00923196289712
C            0.41814037360258       -1.06009538402940       -0.00804743114876
C            0.93081260592017        0.23437501652701        0.00911144996980
C            0.10087936279891        1.40970116694236       -0.00506347257062
O            0.47849645463213        2.56790668450473        0.00184832073088
N           -1.26024454039904        1.07813945575980       -0.03266268450217
C           -2.23144829656628        2.16441508320957       -0.05026020221673
C           -1.80722385883337       -0.19511766068274       -0.05149186347898
O           -3.00580913956071       -0.36381162757543       -0.08007499963609
N           -0.92585819770989       -1.27046023838956       -0.03830156867795
C           -1.45034052249765       -2.62050241005226       -0.06093206590203
H            3.73437670208610        1.24104577374831        1.05655196718826
H            3.99373332926849        1.08351242552413       -0.69045057333458
H            2.68971375694623        2.12776250472090       -0.06127179316662
H            3.55614465808812       -1.62294766127246        0.06464243745543
H           -1.68723486583469        3.10598845556277       -0.02653135944682
H           -2.83940570868172        2.10410835352414       -0.95257029019312
H           -2.89018600580248        2.08747103487797        0.81439666501455
H           -1.12128802939303       -3.16315053695151        0.82615250974448
H           -1.09879524435782       -3.14258737780362       -0.95176790414700
H           -2.53443856654895       -2.54765450644693       -0.07436186900887
H            1.28335367808536       -3.65889610360180       -0.01491092888917
25
 energy: 19.801443476312 xtb: 6.6.1 (8d0f1dd)
C            3.23548418114807        1.19941019736150        0.08595298450535
N            2.30136722575346        0.09755253822682        0.04247716371852
C            2.54277808132126       -1.23885193468967        0.04697324206723
N            1.42783258831814       -1.96609220102540        0.01250345600084
C            0.42012812014234       -1.05751821327067       -0.00794927630955
C            0.93065441460129        0.23864183413374        0.00932775963358
C            0.09817041329587        1.41444792141622       -0.00382185684441
O            0.47216152641056        2.57261160056832        0.00477712518613
N           -1.26165401278594        1.08266917482016       -0.03272530116227
C           -2.23375216735741        2.16798675940828       -0.05071426842448
C           -1.80658536278979       -0.19195178977742       -0.05257567715451
O           -3.00454829093401       -0.36351001014050       -0.08290810975308
N           -0.92427731170148       -1.26485795183808       -0.03854956632635
C           -1.44551344493840       -2.61632209156721       -0.06093903010908
H            3.73968184579752        1.24453192097988        1.05369622487958
H            3.98916628200264        1.09308749440524       -0.69533940555997
H            2.68441298576012        2.13126785151836       -0.05275930086585
H            3.55391077316962       -1.61326383958507        0.06536837691752
H           -1.68963684688314        3.10974250183794       -0.02679989666590
H           -2.84132314277829        2.10699465973798       -0.95329620466195
H           -2.89312737002028        2.09043143665846        0.81351980189666
H           -1.11322818894811       -3.15727088952938        0.82587444352357
H           -1.09126005151556       -3.13712578433998       -0.95137214583755
H           -2.52956122147166       -2.54807412418693       -0.07418588960790
H            1.28304226653187       -3.75500082612845       -0.01821217514434
25
 energy: 18.684526911436 xtb: 6.6.1 (8d0f1dd)
C            3.23610620686858        1.20545899064938        0.08475756634772
N            2.29988362558264        0.10408380332041        0.04304027266713
C            2.53685617897221       -1.23238881541220        0.05010314910999
N            1.42381850465076       -1.96530914096329        0.01668309240348
C            0.42067402647321       -1.05094467493104       -0.00697599312018
C            0.92999174896728        0.24614099944377        0.00971938594969
C            0.09580150902123        1.42039418760010       -0.00239191195035
O            0.46577099989396        2.57941184767231        0.00755378353676
N           -1.26380163898223        1.08759653570910       -0.03226544729243
C           -2.23672520779614        2.17221055370620       -0.05103837031216
C           -1.80608756880644       -0.18756831111133       -0.05268671144655
O           -3.00319548285198       -0.36272972563157       -0.08348940081645
N           -0.92321061314145       -1.25866893350762       -0.03853454721088
C           -1.44033147037417       -2.61129125334658       -0.06161385225374
H            3.74574053121270        1.24813967746137        1.04946491786199
H            3.98585682318190        1.10249981413213       -0.70063214664492
H            2.68585468744816        2.13866365438157       -0.04753931663814
H            3.55078280229256       -1.60189677531912        0.06770123489853
H           -1.69343394721845        3.11462325551428       -0.02736668740243
H           -2.84408867073226        2.11076211818065       -0.95372355450033
H           -2.89730020947194        2.09514748141489        0.81238788748786
H           -1.10478167863483       -3.15081267395538        0.82487213335287
H           -1.08359632564804       -3.12978216524549       -0.95248097920636
H           -2.52446770623405       -2.54637310534767       -0.07448025084065
H            1.28340554541244       -3.85462504986767       -0.01951158336096
25
 energy: 18.108174102155 xtb: 6.6.1 (8d0f1dd)
C            3.23701082836357        1.21261161652273        0.08431309278935
N            2.29624815849237        0.11432209783969        0.04408914823523
C            2.53237898462958       -1.22102604670661        0.05103251326856
N            1.42188608257136       -1.95649098713148        0.02113104034578
C            0.42043058234450       -1.04126079290693       -0.00610999567405
C            0.92785590087076        0.25635322902203        0.00926804382881
C            0.09161946107952        1.42780034989152       -0.00374300376878
O            0.45684004024801        2.58787588623033        0.00627995908100
N           -1.26638578906214        1.09203337104571       -0.03319539688385
C           -2.23893657692843        2.17593400634303       -0.05093605923758
C           -1.80647074326545       -0.18378393743088       -0.05353474619099
O           -3.00292530356715       -0.36182692612221       -0.08386694813612
N           -0.92272584145760       -1.25248980857184       -0.03880357675985
C           -1.43480730601573       -2.60699129465430       -0.06201830202732
H            3.75191958147537        1.24861448425791        1.04607682723061
H            3.98239001319451        1.10944068527113       -0.70497507180885
H            2.69145092481061        2.14949956438047       -0.04319991907579
H            3.54784690965927       -1.58731772029671        0.06672774735060
H           -1.69349830881777        3.11725930543947       -0.02758840389297
H           -2.84686682630903        2.11453005443822       -0.95322106994000
H           -2.89849638868381        2.09868608525301        0.81330103290579
H           -1.09631545439170       -3.14509192593921        0.82425809026333
H           -1.07587139281188       -3.12307977417656       -0.95345216572594
H           -2.51923369999141       -2.54790885794778       -0.07444708013757
H            1.28062319667909       -3.95684886826940       -0.01890372821430
25
 energy: 18.032636780280 xtb: 6.6.1 (8d0f1dd)
C            3.23814717876591        1.21962650592465        0.08408041470081
N            2.29437579814572        0.12458808709887        0.04512786784697
C            2.52843567324675       -1.21036114536908        0.05120396249311
N            1.41883837996029       -1.94585019166601        0.02061908947046
C            0.41970198468480       -1.02943812504997       -0.00524730602476
C            0.92674018182719        0.26755931167031        0.00969250905418
C            0.08957882421331        1.43692580472604       -0.00472378794827
O            0.45417517267054        2.59711762800277        0.00514077654764
N           -1.26821042812079        1.09873979900684       -0.03400344118982
C           -2.24239981165783        2.18042828023580       -0.05147740395589
C           -1.80731010684545       -0.17781796375255       -0.05398140896135
O           -3.00325362621506       -0.35681217337880       -0.08380586551505
N           -0.92283223352924       -1.24448152445704       -0.03852844998230
C           -1.42809256822562       -2.60197135897754       -0.06139910910179
H            3.75892568492939        1.25007385150311        1.04267285070268
H            3.97801021404865        1.11803190452154       -0.71037720491359
H            2.69355615659635        2.15751672187196       -0.03891231452488
H            3.54432212849134       -1.57688488373568        0.06610833545617
H           -1.69938779013063        3.12297576788029       -0.02853216098134
H           -2.85088843091888        2.11728393663352       -0.95317242006245
H           -2.90143943547150        2.10172927428972        0.81295024379882
H           -1.08566374664216       -3.13795646754266        0.82475161047506
H           -1.06492075058135       -3.11631862003487       -0.95223560439275
H           -2.51303240936746       -2.55172826071853       -0.07393157708930
H            1.27899800642887       -4.07067846928187       -0.02310930370676
25
 energy: 18.232176495627 xtb: 6.6.1 (8d0f1dd)
C            3.23905972926422        1.22829494611613        0.08358322706638
N            2.29309337968151        0.13636227770533        0.04504538008429
C            2.52482892924704       -1.19787331590117        0.04963504769827
N            1.41782309370477       -1.93296565585257        0.01965927725580
C            0.41939826330727       -1.01725526256697       -0.00506874703688
C            0.92572495535600        0.27929285459103        0.00994799091351
C            0.08764907404234        1.44656293564945       -0.00493676512397
O            0.45113303862408        2.60730959918518        0.00510560166686
N           -1.26938708285493        1.10536091983811       -0.03427844277804
C           -2.24510136529888        2.18502403551068       -0.05199036511367
C           -1.80731754681386       -0.17189352238878       -0.05401674211115
O           -3.00321169502464       -0.35168449191160       -0.08313423106014
N           -0.92230680587834       -1.23684082136914       -0.03838844135953
C           -1.42224625965711       -2.59673947939279       -0.06109530938916
H            3.76492109351092        1.25544880310682        1.03951667538948
H            3.97416377174031        1.12711408206596       -0.71521010848330
H            2.69734076082142        2.16752974374243       -0.03792294123850
H            3.53970947696723       -1.56774069809379        0.06585153478381
H           -1.70369353311683        3.12808392885317       -0.02926144858738
H           -2.85363680771999        2.12101054823153       -0.95350793002911
H           -2.90401094531694        2.10604998009197        0.81239962427762
H           -1.07624383596845       -3.13150865970328        0.82460303725309
H           -1.05606578960252       -3.10995361763286       -0.95162346232436
H           -2.50728455422647       -2.55244730642965       -0.07312107370329
H            1.27789314934853       -4.19084305584498       -0.02551523574098
25
 energy: 18.537323565428 xtb: 6.6.1 (8d0f1dd)
C            3.24105805822191        1.23703741506757        0.08212842259666
N            2.29260609267305        0.14898084374656        0.04432298615524
C            2.52269215347849       -1.18424617188985        0.04780972080536
N            1.41843165210050       -1.91868635450478        0.01914909241716
C            0.41973030522519       -1.00460319651982       -0.00509483940171
C            0.92521539487391        0.29150086680351        0.01001292935808
C            0.08549995228284        1.45641291216870       -0.00487545414756
O            0.44754757055844        2.61772810704858        0.00531393427302
N           -1.27042875526952        1.11159600271107       -0.03445089284832
C           -2.24795287362173        2.18891463354017       -0.05217466419632
C           -1.80678767771002       -0.16737382783244       -0.05400126371309
O           -3.00300163800273       -0.34707178468002       -0.08262640024037
N           -0.92125932944789       -1.22916480217382       -0.03837023722446
C           -1.41788224590959       -2.59050177123562       -0.06114000662420
H            3.76995605220700        1.26108679212287        1.03624448057650
H            3.97336837951936        1.13602075557237       -0.71893056446366
H            2.70106362386487        2.17641289128688       -0.04081233039067
H            3.53462988394433       -1.56051115755436        0.06524971118443
H           -1.70767493977346        3.13244021851083       -0.02948351820603
H           -2.85634221746925        2.12398324507253       -0.95367362879994
H           -2.90621619646134        2.10922479006971        0.81252579736351
H           -1.06897625291042       -3.12371270638060        0.82429615776578
H           -1.04942474308889       -3.10210579150537       -0.95168213681490
H           -2.50278247814890       -2.55207137243707       -0.07282266858424
H            1.27958531526881       -4.31699006502857       -0.02623325500669
25
 energy: 18.840669407829 xtb: 6.6.1 (8d0f1dd)
C            3.24168488317618        1.24643197132321        0.08169213082880
N            2.29167484556493        0.16135572318542        0.04288093772646
C            2.52150226590997       -1.17025628756034        0.04637771754054
N            1.42009815730741       -1.90388527257096        0.01857698833822
C            0.42021409976081       -0.99262701750757       -0.00544624547053
C            0.92431469020251        0.30302425028056        0.00966187998596
C            0.08276826807700        1.46544925573183       -0.00496815262730
O            0.44312226686943        2.62747805608068        0.00546301968921
N           -1.27164520146878        1.11660772862869       -0.03447676233482
C           -2.25059431797296        2.19243613127675       -0.05221838303528
C           -1.80622297789309       -0.16476220030557       -0.05372194139317
O           -3.00286122038501       -0.34337847057193       -0.08164339457853
N           -0.91954316826405       -1.22247338544025       -0.03833444742630
C           -1.41359799778693       -2.58391124833580       -0.06096830013840
H            3.76586409061999        1.26493316864525        1.03822255000818
H            3.97182756984446        1.14648298654113       -0.72096610162524
H            2.70599107939694        2.18746500495838       -0.04355929607053
H            3.52752081411665       -1.55595520086872        0.06557130540933
H           -1.71086641598882        3.13624567992434       -0.02976854027443
H           -2.85914178912601        2.12672404619051       -0.95366755006619
H           -2.90881006874448        2.11249664077322        0.81266511936571
H           -1.06415240535848       -3.11440495462960        0.82522887581025
H           -1.04510467912497       -3.09294906189710       -0.95230185218722
H           -2.49843067650056       -2.54732756461299       -0.07268633349623
H            1.27833271887465       -4.44492771742140       -0.02800104657047
25
 energy: 19.120418552887 xtb: 6.6.1 (8d0f1dd)
C            3.24335748663014        1.25519287301820        0.08215898859968
N            2.29109560223914        0.17398536886945        0.04270291637455
C            2.52143006631235       -1.15553435393009        0.04554045492046
N            1.42267169931332       -1.88866897638026        0.01826239679396
C            0.42121118466839       -0.98068540087387       -0.00570287163856
C            0.92382288017085        0.31461975382271        0.00977344315318
C            0.08061182636921        1.47458020227117       -0.00483429536909
O            0.43965638612432        2.63727020331052        0.00585090068720
N           -1.27192922724972        1.12141989874912       -0.03449885568424
C           -2.25320195137435        2.19575263816955       -0.05231697581159
C           -1.80492908931586       -0.16197201440500       -0.05343677998418
O           -3.00201953013083       -0.33951366600786       -0.08068550302629
N           -0.91694464610340       -1.21643296495454       -0.03819078332031
C           -1.40896717072909       -2.57779032041285       -0.06083971590451
H            3.76358659049919        1.27257683830913        1.04115566312351
H            3.97313836020077        1.14639758637907       -0.71904297526709
H            2.71224736023952        2.19792237366543       -0.04770364401992
H            3.52133109787436       -1.55083605962912        0.06595459033925
H           -1.71521324941813        3.14046936287216       -0.02988598860461
H           -2.86221206131252        2.12896083500584       -0.95358796057004
H           -2.91167336325240        2.11487918732746        0.81246341470108
H           -1.05707499912959       -3.10585604308519        0.82531720555041
H           -1.03802249546951       -3.08454454563228       -0.95201798625471
H           -2.49441459445386       -2.54255957103561       -0.07267083402188
H            1.27296874851792       -4.57368038614367       -0.02954733600777
25
 energy: 19.355100885129 xtb: 6.6.1 (8d0f1dd)
C            3.24654966658649        1.26379497813320        0.08311191695405
N            2.29162919746731        0.18691736005994        0.04275308808807
C            2.52348015390468       -1.14035325038898        0.04414770525230
N            1.42776911406128       -1.87366802276029        0.01675626271138
C            0.42336603884163       -0.96926859088487       -0.00520187332455
C            0.92429493366230        0.32599896288195        0.01098276548774
C            0.07982553333473        1.48367169279595       -0.00462281402842
O            0.43738472224999        2.64709039224287        0.00547529671314
N           -1.26987940099854        1.12559111828677       -0.03452119255583
C           -2.25376701047230        2.19695715232402       -0.05225359561735
C           -1.80241677562365       -0.15870403578592       -0.05187263521947
O           -3.00012183089065       -0.33474196419888       -0.07930159192825
N           -0.91316677769056       -1.21121000454970       -0.03693180066409
C           -1.40383354912841       -2.57325966688106       -0.06054391378125
H            3.76244559789218        1.28055584776889        1.04476701962080
H            3.98055757073513        1.14469412501167       -0.71327425761073
H            2.71824573768980        2.20751927247254       -0.05139794085580
H            3.51841380349375       -1.54209981908167        0.06542060795781
H           -1.71989946805593        3.14404800068975       -0.02968433047997
H           -2.86285808101517        2.12801717739815       -0.95325413960570
H           -2.91155316364114        2.11122597321068        0.81229285225076
H           -1.04935720809765       -3.09918853730282        0.82454092714952
H           -1.03106735003510       -3.07707706652003       -0.95152965872089
H           -2.49026025856688       -2.53777298492945       -0.07234245858948
H            1.26629687734393       -4.70247490980278       -0.03080040296113
25
 energy: 19.546574122163 xtb: 6.6.1 (8d0f1dd)
C            3.24998458144506        1.27288905630418        0.08394082174688
N            2.29279400611323        0.19966507907790        0.04267052379979
C            2.52855932546885       -1.12544550527734        0.04166228041343
N            1.43452780456241       -1.85875759129335        0.01397895413405
C            0.42597017512187       -0.95913499517813       -0.00456143382573
C            0.92490932481934        0.33657600216987        0.01333540942844
C            0.07865487647011        1.49209383627478       -0.00372308583454
O            0.43545388203787        2.65606894334517        0.00427064435763
N           -1.26868851970243        1.12911505530028       -0.03397024491547
C           -2.25683046753022        2.19699659918284       -0.05188384246686
C           -1.79956162751056       -0.15649287554521       -0.05149180417421
O           -2.99733615965384       -0.33396564549362       -0.07907392574053
N           -0.90942061080263       -1.20928005196062       -0.03634506485996
C           -1.39883512827320       -2.57118357423920       -0.06011254030802
H            3.76183991810420        1.28898170741817        1.04806678103771
H            3.98906140912250        1.14723356511654       -0.70765990601819
H            2.72331412287194        2.21683227981470       -0.05460705157043
H            3.52082477947762       -1.53073585494463        0.06029433991152
H           -1.72581026578962        3.14593770328130       -0.02885909339364
H           -2.86423299595436        2.12458380969167       -0.95356902679060
H           -2.91395295113746        2.10836494454433        0.81279236350756
H           -1.04296617277873       -3.10064668570675        0.82226395453203
H           -1.02448148524493       -3.07778680997712       -0.94855576289969
H           -2.48611318483289       -2.53352716344951       -0.07241582246385
H            1.25007132326143       -4.83091575592436       -0.03189487159480
25
 energy: 19.686089300452 xtb: 6.6.1 (8d0f1dd)
C            3.25251301340768        1.28032559061367        0.08470404376856
N            2.29374810209812        0.20966638287214        0.04340623299020
C            2.53575127723452       -1.11417410658358        0.03970976640329
N            1.44465156133281       -1.84931443333589        0.01048311271832
C            0.43046673421115       -0.95680258699415       -0.00419634084948
C            0.92567149277867        0.34165451177699        0.01646261610199
C            0.07679710610500        1.49536061886662       -0.00305465511442
O            0.43308936858797        2.65968280858694        0.00204983236854
N           -1.26957135929901        1.12921674883283       -0.03275541426704
C           -2.25836384611543        2.19709418161877       -0.05184518237795
C           -1.79643057124595       -0.15722287227316       -0.05098372669405
O           -2.99359571561676       -0.33825126080096       -0.07894519965405
N           -0.90408265808518       -1.21169205188814       -0.03664152607279
C           -1.39757644246598       -2.57218004722801       -0.06003297089459
H            3.76206770848047        1.29563396526689        1.05015951129607
H            3.99474017010049        1.14820490729406       -0.70324408345458
H            2.72954435309967        2.22538685986071       -0.05681853650463
H            3.52490727636702       -1.52764298071676        0.05715506982167
H           -1.72602635411682        3.14553968116166       -0.02858833456737
H           -2.86600142750064        2.12533405045454       -0.95365669594022
H           -2.91611890969832        2.10915472559541        0.81251431866311
H           -1.04987134051821       -3.10736624534884        0.82323372115002
H           -1.02989316440066       -3.08492754998976       -0.94866210860755
H           -2.48520503572681       -2.53006054997647       -0.07252031613356
H            1.20100296595861       -4.92359155892149       -0.03089922195494
