25
 energy: 0.000000000000 xtb: 6.6.1 (8d0f1dd)
C            3.23720163006194        1.16630919979326        0.08434469647475
N            2.29877817382611        0.07527477071623        0.03981603040599
C            2.58028210190900       -1.21425402444508        0.03006176031096
N            1.43813958087363       -1.93419271955128        0.00098261760884
C            0.39035688448383       -1.05887472636071       -0.00790371836672
C            0.93510056364412        0.21347819449412        0.01709077491437
C            0.09450143893243        1.40504303904423       -0.00410947031874
O            0.49712751527797        2.54126714362870       -0.00342325688240
N           -1.25076640035757        1.06271879480407       -0.03085478223738
C           -2.21907211982101        2.15522099834493       -0.05001256985998
C           -1.81739487048744       -0.20012725993278       -0.04692818574614
O           -2.99983886758376       -0.37846417018721       -0.07008878229737
N           -0.92618586207120       -1.30210215599479       -0.03682761578324
C           -1.46982264913417       -2.64643102187190       -0.06029820460571
H            3.71247264356769        1.21471455160235        1.06488849150277
H            4.00791497605742        1.03430808813993       -0.67357694370751
H            2.69910007168542        2.09770118228144       -0.09130154882931
H            3.56654120610678       -1.63682992603973        0.04233140067262
H           -1.67107961066214        3.09322851271934       -0.02552706933167
H           -2.82428953597071        2.09428624779827       -0.95318082946668
H           -2.87644029173232        2.07745725625962        0.81450067533302
H           -1.17061996399332       -3.19584890659852        0.83242232437030
H           -1.14560257411436       -3.17511610292205       -0.95688275822323
H           -2.55549792440841       -2.55659984320617       -0.07459039797972
H            1.38130855184625       -2.94313852034425       -0.01389874181052
25
 energy: -1.795476685462 xtb: 6.6.1 (8d0f1dd)
C            3.23601254867139        1.18423055451184        0.08506712742789
N            2.30152055095748        0.08792527156323        0.03866067518566
C            2.58620041437452       -1.25048301916526        0.03187137752941
N            1.42104319352166       -1.99879046117289        0.00237647770394
C            0.40281146267351       -1.07294233078507       -0.00770496291850
C            0.92803448594394        0.21712734992079        0.01609951595976
C            0.10078484383236        1.40342914852160       -0.00425159675418
O            0.49476474270120        2.57123858111597       -0.00210931078058
N           -1.26171691248408        1.06438738767845       -0.03149968552225
C           -2.22866326494667        2.15897164740611       -0.05033089264955
C           -1.81784751461737       -0.18942938481492       -0.04861571121186
O           -3.01394008219313       -0.37285439629628       -0.07321913504652
N           -0.92857248713215       -1.29260027883561       -0.03731937087741
C           -1.45660883399750       -2.63234217615956       -0.06062970111578
H            3.72795655925548        1.23628780670943        1.06077349392100
H            4.00157112020074        1.06567781418517       -0.68360160980572
H            2.69869027192409        2.11929308804266       -0.07920746077694
H            3.57099164513396       -1.65220014905201        0.04701859343880
H           -1.67888388202743        3.09760141425249       -0.02615632989327
H           -2.83690497268638        2.10347110116040       -0.95311094980437
H           -2.88857985998670        2.08675922084062        0.81401062590517
H           -1.13787730434271       -3.17445088990031        0.83135204195348
H           -1.11394669058596       -3.15316935239838       -0.95648721375418
H           -2.54141234023535       -2.54899971125015       -0.07439620781538
H            1.34678697398132       -3.06910963390630       -0.01155589415133
25
 energy: 5.121637749695 xtb: 6.6.1 (8d0f1dd)
C            3.23311892994390        1.19263861466319        0.08449841530556
N            2.30237316670974        0.08988383172831        0.03744115416839
C            2.58394014949179       -1.28099125522410        0.03568938653414
N            1.40172434755946       -2.05494646569766        0.00525290537903
C            0.41320831708058       -1.08584044552176       -0.00688911994556
C            0.92172852800332        0.21344807068138        0.01506483771595
C            0.10621298279435        1.39309826318734       -0.00411938336147
O            0.48494657143982        2.57372667100307        0.00025565157057
N           -1.27391464853076        1.07146907422906       -0.03251147200474
C           -2.23760006203164        2.16881515401375       -0.05094633839762
C           -1.81507923426851       -0.17511625208414       -0.05086420911098
O           -3.01493416771962       -0.36793241382045       -0.07790666622478
N           -0.92995636052683       -1.27501087323192       -0.03770671200034
C           -1.43868749175380       -2.61490970360940       -0.06118485490443
H            3.74507282081078        1.25051070388304        1.05216834803371
H            3.99031967644173        1.10069567896563       -0.69913067286479
H            2.69020760100455        2.13027459546302       -0.06127972289413
H            3.57306677465067       -1.65670924983209        0.05485623201762
H           -1.68757480283367        3.10815577436512       -0.02719377254505
H           -2.84929699686994        2.11572336527633       -0.95251497045534
H           -2.90002945894546        2.09929833282577        0.81269153522889
H           -1.09971606802403       -3.14944920982517        0.82956451288505
H           -1.07734509832570       -3.12735017186911       -0.95617600055645
H           -2.52330376604442       -2.54855382307737       -0.07426579162516
H            1.31373295787988       -3.18189966431981       -0.00775939580082
25
 energy: 9.889040471092 xtb: 6.6.1 (8d0f1dd)
C            3.23128360606168        1.19438404292397        0.08365818762475
N            2.30347461125139        0.08880832386886        0.03750555366012
C            2.58089513675563       -1.29142158323456        0.03887784607962
N            1.39290277441412       -2.07427165846176        0.00719982265296
C            0.41633881005952       -1.09153879778075       -0.00602419139813
C            0.92017305761151        0.20954971057137        0.01478937329179
C            0.10872892213293        1.38904890279787       -0.00370422941513
O            0.47999424802778        2.57013195360732        0.00181493335765
N           -1.27937228663752        1.07827669374912       -0.03320615519476
C           -2.24077287741811        2.17609465364256       -0.05158141013367
C           -1.81484972689648       -0.16874549952278       -0.05235992966385
O           -3.01412381619643       -0.36844587469200       -0.08107674826477
N           -0.93049264996343       -1.26481405157977       -0.03771814378525
C           -1.43007796924742       -2.60773898804525       -0.06143091927082
H            3.75429239298720        1.25073736671937        1.04559652870884
H            3.98055534754354        1.11731562838077       -0.70970835555937
H            2.68241816110532        2.13183278603623       -0.04930473346435
H            3.57520415320250       -1.65376784109578        0.06054349536434
H           -1.69120548734351        3.11547124030279       -0.02819016757418
H           -2.85343996896829        2.12229093343439       -0.95265669929253
H           -2.90350273333318        2.10635698443693        0.81205052584546
H           -1.08233225262244       -3.13756682801411        0.82892400527734
H           -1.06092275718528       -3.11504678365417       -0.95635670185100
H           -2.51487506603584       -2.55392424232837       -0.07409823922436
H            1.30192103863102       -3.23398846989025       -0.00650975162337
25
 energy: 12.092957586540 xtb: 6.6.1 (8d0f1dd)
C            3.23118673171943        1.19485381076776        0.08337935798648
N            2.30466477410833        0.08871549952618        0.03780599123806
C            2.57950147702251       -1.29216805029592        0.04066722665324
N            1.39061379988785       -2.07616772993929        0.00798707942690
C            0.41663793525660       -1.09319701118012       -0.00592514590636
C            0.92052331448963        0.20783513132538        0.01415917254559
C            0.10977449322432        1.38879225060351       -0.00369816891725
O            0.47810097036713        2.56836735820778        0.00254052453159
N           -1.28068446056064        1.08139304851925       -0.03360467294588
C           -2.24136313296643        2.17847436373040       -0.05185136964844
C           -1.81560530217124       -0.16742278032417       -0.05305550952513
O           -3.01390818341193       -0.36985302871124       -0.08228420335609
N           -0.93080110207164       -1.26082174398588       -0.03775994192519
C           -1.42840632566473       -2.60596827697373       -0.06144398732526
H            3.75821735777840        1.24861709072837        1.04260654421073
H            3.97624647278355        1.12231699573551       -0.71355246853782
H            2.68036596955945        2.13185807740713       -0.04442874459816
H            3.57634976105804       -1.64903366043170        0.06305450805069
H           -1.69240038604090        3.11792137909749       -0.02871614119725
H           -2.85419894696402        2.12401257466931       -0.95279475049653
H           -2.90379921994434        2.10842995068279        0.81203764730661
H           -1.07880251427363       -3.13383245634677        0.82887768579801
H           -1.05796460220359       -3.11129350423497       -0.95652572969050
H           -2.51308252933881       -2.55657520411225       -0.07385305925260
H            1.30104831629285       -3.25622548229279       -0.00658794827815
25
 energy: 13.760062521849 xtb: 6.6.1 (8d0f1dd)
C            3.23165975114129        1.19511116492792        0.08332187527897
N            2.30565301090992        0.08897357635060        0.03814527901966
C            2.57869802458067       -1.29014570100338        0.04206778626434
N            1.39064888623780       -2.07207301083309        0.00852176882973
C            0.41604475092027       -1.09327075114641       -0.00630220961048
C            0.92123078216664        0.20743088533142        0.01323230734278
C            0.11032977033660        1.38983015595138       -0.00382545077044
O            0.47735019739508        2.56813676352534        0.00300644491411
N           -1.28052248246207        1.08262730134216       -0.03387104195783
C           -2.24128896281340        2.17869997104042       -0.05195223963429
C           -1.81657428053328       -0.16763902966454       -0.05332519367353
O           -3.01408251398368       -0.37043441568470       -0.08262078448968
N           -0.93113943147551       -1.25900374487187       -0.03788659008522
C           -1.42890051566104       -2.60575657969001       -0.06142431482494
H            3.75993841425373        1.24701100039654        1.04133875757692
H            3.97470820683887        1.12348480257763       -0.71472594291508
H            2.68066438341773        2.13184674503499       -0.04258852240669
H            3.57671446535677       -1.64475319293106        0.06378283557930
H           -1.69320970480685        3.11853232973491       -0.02897127258256
H           -2.85427440450346        2.12399107360651       -0.95280702148818
H           -2.90351804107735        2.10860271358776        0.81214727257281
H           -1.07917201966667       -3.13262357548014        0.82894198683001
H           -1.05873945806599       -3.11019936067133       -0.95666443171096
H           -2.51341833911587       -2.55716909381276       -0.07363670392659
H            1.30341417854596       -3.27218142544627       -0.00687069798486
25
 energy: 14.627946805883 xtb: 6.6.1 (8d0f1dd)
C            3.23198768774080        1.19533630247050        0.08339259550687
N            2.30581003045419        0.08930140114038        0.03840481972837
C            2.57861280370115       -1.28829049711430        0.04283842569288
N            1.39190273112276       -2.06726476702571        0.00873709522846
C            0.41541475502339       -1.09230005611855       -0.00675047498212
C            0.92147971560685        0.20847453418841        0.01271685536018
C            0.11026198762763        1.39102638804365       -0.00390803029537
O            0.47762738763566        2.56931994461207        0.00305657939881
N           -1.27985792065292        1.08220849601153       -0.03392111723310
C           -2.24108146359805        2.17789218591079       -0.05190734995118
C           -1.81697318700903       -0.16819831894595       -0.05317629628355
O           -3.01440384398022       -0.36971436139444       -0.08223910253727
N           -0.93134550914712       -1.25923772271411       -0.03800035813911
C           -1.42977921825059       -2.60625800354184       -0.06141777592725
H            3.75934814170729        1.24727410036181        1.04185882685765
H            3.97566108715883        1.12234092900712       -0.71390371363060
H            2.68165170483517        2.13212053756678       -0.04354078282653
H            3.57633862088776       -1.64387133292189        0.06269483879728
H           -1.69347351863526        3.11807993464542       -0.02889874734366
H           -2.85413890908036        2.12330505035940       -0.95275608315964
H           -2.90334890628179        2.10786300124422        0.81221052274055
H           -1.08052376470636       -3.13320734043977        0.82897351623941
H           -1.06009526559057       -3.11089843356636       -0.95664678564548
H           -2.51427917515590       -2.55632184929086       -0.07362208578248
H            1.30541869652290       -3.27995152031631       -0.00716147566584
25
 energy: 15.059531522219 xtb: 6.6.1 (8d0f1dd)
C            3.23203729238182        1.19562384227513        0.08346679036523
N            2.30555407002599        0.08959466344105        0.03860314037557
C            2.57882269170529       -1.28753038319846        0.04341709217126
N            1.39305028726526       -2.06458976784558        0.00877901703370
C            0.41515461608782       -1.09136838811792       -0.00701439433197
C            0.92134492189319        0.20982866353974        0.01268915040497
C            0.10994159794522        1.39173552248014       -0.00392021249023
O            0.47810405793224        2.57052599977794        0.00286448335003
N           -1.27951138237249        1.08156367208749       -0.03387507516288
C           -2.24104891826340        2.17737753677036       -0.05182946402825
C           -1.81686135015643       -0.16841032053684       -0.05295775293045
O           -3.01454541045368       -0.36885083730208       -0.08177006912311
N           -0.93139983828520       -1.26007311964627       -0.03807170338065
C           -1.43013252953404       -2.60664095068172       -0.06143741646945
H            3.75818943153915        1.24839744831820        1.04276819201114
H            3.97701575257062        1.12115397652323       -0.71278521576598
H            2.68219809105346        2.13253321732920       -0.04508457230520
H            3.57592461549504       -1.64480845978831        0.06111917724290
H           -1.69338998620942        3.11762921664623       -0.02872688255654
H           -2.85406589304848        2.12293247640037       -0.95272075475337
H           -2.90339758618686        2.10734649279961        0.81222520671461
H           -1.08126812307434       -3.13401447670170        0.82896964210101
H           -1.06065461307779       -3.11177250958717       -0.95657981738237
H           -2.51468477166627       -2.55553495191810       -0.07372520675641
H            1.30583764436947       -3.28361996089249       -0.00736945818627
25
 energy: 15.198933625167 xtb: 6.6.1 (8d0f1dd)
C            3.23198930043449        1.19582216133793        0.08350885342483
N            2.30532944452238        0.08976804075391        0.03871921979978
C            2.57901019014718       -1.28746520975094        0.04393475789482
N            1.39357352040084       -2.06407530099515        0.00874640994351
C            0.41518778852564       -1.09098121105067       -0.00707961248757
C            0.92116974748227        0.21055478056276        0.01288401500070
C            0.10970395686002        1.39189181160428       -0.00391527264400
O            0.47834541421150        2.57099781337661        0.00266537971271
N           -1.27953082900646        1.08131242964110       -0.03383088117307
C           -2.24113590571990        2.17735688833577       -0.05178972688869
C           -1.81661453133464       -0.16832473248198       -0.05286198715378
O           -3.01448533899677       -0.36856025090047       -0.08156036009756
N           -0.93135646084785       -1.26063034399024       -0.03810863910947
C           -1.43008847717792       -2.60672397497515       -0.06146205562096
H            3.75757280242434        1.24917437964169        1.04323496643980
H            3.97765539500962        1.12070560075990       -0.71222754579565
H            2.68228669229202        2.13278426372708       -0.04588718292645
H            3.57578988095729       -1.64564372712678        0.06001443151196
H           -1.69322428221096        3.11747907664821       -0.02863107030139
H           -2.85407167477712        2.12294537662515       -0.95271707715164
H           -2.90349943639448        2.10726933815716        0.81221852255790
H           -1.08140239774155       -3.13438889316244        0.82896446812599
H           -1.06065437253842       -3.11217524378785       -0.95654927065479
H           -2.51468135967967       -2.55529416876352       -0.07380831523516
H            1.30534560109433       -3.28477030201431       -0.00742813102455
