72
 energy: -99.345757669727 gnorm: 0.004923090052 xtb: 6.6.1 (8d0f1dd)
N           -1.49916582788363        2.80668229841680        1.94488747603976
C           -1.58368279093648        2.17995174648310        0.86692387708694
C           -2.86858184856103        1.93367932288570        0.12404379633227
C           -3.26631433447368        0.47089369446500        0.24887352886599
C           -4.27757185442954       -0.04208458060308       -0.56575857457978
C           -4.69285128537530       -1.35899593779470       -0.46249318966561
O           -5.65900812863659       -1.93218983116339       -1.20863599437313
C           -6.37121665092452       -1.14833136854760       -2.13670469187387
C           -4.08040069067346       -2.21300311273219        0.49469077428208
O           -4.55042061552566       -3.47586179143223        0.52725951250242
C           -4.06887844738338       -4.36242832451778        1.50981272031833
C           -3.07881672853563       -1.69733587075009        1.30166076790550
C           -2.67747038860644       -0.37295448870874        1.17865926423263
C           -2.58371329268540        2.28439308106639       -1.35925982951094
C           -1.70843650661778        1.26401102681057       -2.11119448752918
C           -0.25912840069698        1.38882921639822       -1.80757814752060
N            0.58904193532539        0.39002927080047       -1.55071973093777
C            1.91388146019089        0.55707335680170       -1.66513499380471
C            2.95676692071432       -0.38771222888453       -1.26545421616125
C            3.50196168601869       -0.12480956644812        0.23772239908527
C            4.19304545805735        1.18048828337529        0.25418063611961
C            5.54775052369935        1.27528395964862        0.19122877227036
C            6.36513913468896        0.13197658472474        0.24950524495621
O            7.69323316127329        0.11689449943664        0.12262208776452
C            8.38956104444844        1.31306042010191       -0.14929805508625
C            5.75598156186722       -1.14286523764328        0.52822443007783
O            6.64199793767770       -2.13563708735467        0.75179704837498
C            6.15789117192664       -3.41506845311826        1.08756023587762
C            4.40037101040799       -1.24980798524087        0.58590402230509
C            0.05269993566391       -0.89981288315667       -1.14770050407481
C           -4.05588614072241        2.79619250389769        0.65094298284827
C           -4.45758018120423        2.39960301490023        2.06962697094541
C           -3.77640412159465        4.29545184000681        0.59803470282838
H           -4.75652210381092        0.60318654352597       -1.28279269399291
H           -6.88608893262144       -0.31595614013289       -1.64762966752645
H           -7.10763302767962       -1.81677878282763       -2.57835958038725
H           -5.71610323246529       -0.76285796848449       -2.92476456758100
H           -4.25376662097353       -3.98080675584936        2.51831803487060
H           -4.62481781942791       -5.28685508537010        1.36608722627659
H           -2.99956187373648       -4.56010951916145        1.38385667791574
H           -2.60722896175751       -2.31768574618796        2.04637460597900
H           -1.91596760737130        0.00190161408945        1.84517592147901
H           -3.53403626879397        2.37131331719052       -1.88454247948658
H           -2.09729980695051        3.25947911693456       -1.40230915370894
H           -2.08470256402671        0.25735385465406       -1.94025107678863
H           -1.83069666233327        1.48041769674841       -3.18056776596455
H           -0.70937143450127        1.77680270817048        0.32378111952621
H            0.19607459290846        2.34076543033191       -2.03961984446220
H            2.61147293999174       -0.12315398899860        0.86983464337585
H            2.22793638398492        1.53949642137246       -1.97985751459623
H            3.82350416195125       -0.26591775037490       -1.91474812964171
H            2.64069935055625       -1.42746394730061       -1.31311448183916
H            3.58814623434991        2.07271867371985        0.24196638721302
H            6.00916678293054        2.24847412569487        0.12750261522129
H            8.30446934138509        2.02144819676830        0.67948470361690
H            8.03309529374341        1.78208720728810       -1.07098455654091
H            9.43188531377096        1.02408298444706       -0.26975054046427
H            7.04026493499052       -4.03953163699405        1.21073802769542
H            5.59455795835678       -3.39327937422201        2.02540642981065
H            5.52961083455442       -3.82714418465494        0.29186202696373
H            3.93104121961922       -2.19261997167286        0.81320269694179
H           -0.16802787594516       -1.50968037748857       -2.02458626404917
H           -0.86030697279590       -0.76224728067322       -0.56914934657455
H            0.76936459266070       -1.42610228511693       -0.52466792369708
H           -4.90496605180663        2.58579400056806       -0.00971634374471
H           -3.63961527755146        2.59501067996991        2.75561269987921
H           -4.72245559638696        1.34660944888677        2.12534007455539
H           -5.31868120048424        2.98544682315646        2.38042982997114
H           -2.93291939542004        4.54451271299896        1.23480045369385
H           -3.57468770340185        4.63647822178466       -0.41382383092845
H           -4.64733445749054        4.83359934288081        0.96310021705874
H           -0.57577759751378        2.93975582467368        2.34539737665706
