25
 energy: 0.000000000000 xtb: 6.6.1 (8d0f1dd)
C            3.23720163006194        1.16630919979326        0.08434469647475
N            2.29877817382611        0.07527477071623        0.03981603040599
C            2.58028210190900       -1.21425402444508        0.03006176031096
N            1.43813958087363       -1.93419271955128        0.00098261760884
C            0.39035688448383       -1.05887472636071       -0.00790371836672
C            0.93510056364412        0.21347819449412        0.01709077491437
C            0.09450143893243        1.40504303904423       -0.00410947031874
O            0.49712751527797        2.54126714362870       -0.00342325688240
N           -1.25076640035757        1.06271879480407       -0.03085478223738
C           -2.21907211982101        2.15522099834493       -0.05001256985998
C           -1.81739487048744       -0.20012725993278       -0.04692818574614
O           -2.99983886758376       -0.37846417018721       -0.07008878229737
N           -0.92618586207120       -1.30210215599479       -0.03682761578324
C           -1.46982264913417       -2.64643102187190       -0.06029820460571
H            3.71247264356769        1.21471455160235        1.06488849150277
H            4.00791497605742        1.03430808813993       -0.67357694370751
H            2.69910007168542        2.09770118228144       -0.09130154882931
H            3.56654120610678       -1.63682992603973        0.04233140067262
H           -1.67107961066214        3.09322851271934       -0.02552706933167
H           -2.82428953597071        2.09428624779827       -0.95318082946668
H           -2.87644029173232        2.07745725625962        0.81450067533302
H           -1.17061996399332       -3.19584890659852        0.83242232437030
H           -1.14560257411436       -3.17511610292205       -0.95688275822323
H           -2.55549792440841       -2.55659984320617       -0.07459039797972
H            1.38130855184625       -2.94313852034425       -0.01389874181052
25
 energy: -3.705454143338 xtb: 6.6.1 (8d0f1dd)
C            3.24669611887854        1.16879986377182        0.08047277669345
N            2.31049556754959        0.08763865974224        0.03450780039776
C            2.60214675490066       -1.24016643393021        0.03028858789981
N            1.43034900432780       -1.94771885276344        0.00319290944049
C            0.39936914059160       -1.06237864880249       -0.00761661222581
C            0.93280789255737        0.21640233017703        0.01338378471930
C            0.10735007605014        1.39392300632057       -0.00547454704120
O            0.50966332781755        2.55716292911633       -0.00878837517917
N           -1.25704961356730        1.06028104833979       -0.02950895388217
C           -2.21704275624722        2.16934976128983       -0.04146929450270
C           -1.81851845684019       -0.19847204905779       -0.04808150524465
O           -3.01473357612821       -0.38490950858335       -0.06710781308353
N           -0.93114746715568       -1.30450107967356       -0.03598613197088
C           -1.46405007236569       -2.65092652847462       -0.05679695740261
H            3.72132050801442        1.21928829897583        1.06389711021260
H            4.01702956618893        1.02919755499559       -0.67926672399020
H            2.70075959796997        2.09251846898888       -0.10190731865323
H            3.58055677413974       -1.66594077570711        0.04338746239859
H           -1.76036279940930        3.17064574599284        0.01365855202893
H           -2.78501957398710        2.14186327523005       -0.95383259081641
H           -2.92172537671978        2.04406149141420        0.77610067821780
H           -1.16071465521945       -3.20133147456833        0.83639013694381
H           -1.13084496197412       -3.18495625022648       -0.94941290343091
H           -2.54977149997313       -2.56900413150422       -0.07434457261754
H            1.36465114853709       -2.95179809889138       -0.00865160276422
25
 energy: 0.283078530200 xtb: 6.6.1 (8d0f1dd)
C            3.26114260483049        1.16117699045980        0.06924459900825
N            2.32281400152065        0.09155450402952        0.02275361769955
C            2.62066587160142       -1.27122823301534        0.03077405355403
N            1.41824390834854       -1.95932255287415        0.00814551921629
C            0.40894785379092       -1.06525299450507       -0.00593840451811
C            0.93135636038596        0.21845187203087        0.00694263449180
C            0.12552853243076        1.37998420670414       -0.00779780923314
O            0.51993041695531        2.56004396513919       -0.02140413734154
N           -1.26547365954542        1.07032171502871       -0.02287089385116
C           -2.22417509291143        2.19245438843330       -0.02846672801791
C           -1.81513500363344       -0.18783894098625       -0.04406618774568
O           -3.01789931478995       -0.38972037281380       -0.05924901090404
N           -0.93588233751383       -1.30017266659357       -0.03243540750154
C           -1.45062482359058       -2.65348628966637       -0.04938555820354
H            3.73525595421284        1.22324941080432        1.05490646129069
H            4.03509665128304        1.01585425102845       -0.68830561685312
H            2.71115041760472        2.07984962980159       -0.12410943500967
H            3.59043451186124       -1.70214508890300        0.04456382878819
H           -1.89978073577387        3.27538944923009        0.11865044612108
H           -2.70529086465185        2.23518845860697       -0.98710349183913
H           -3.01719412551504        1.96735771755421        0.70231770671565
H           -1.14219341070138       -3.20357622656940        0.84534996281413
H           -1.10220197089093       -3.19613580839602       -0.93435432215830
H           -2.53712493726526       -2.59223697358987       -0.07342265050783
H            1.34462385989335       -2.96073180876636        0.00229472013232
25
 energy: 8.611572758582 xtb: 6.6.1 (8d0f1dd)
C            3.27507693885796        1.14761002191119        0.05221787825028
N            2.33165469445238        0.08680162770944        0.00755541020760
C            2.63036641136596       -1.29875018495430        0.02924579155890
N            1.40855335420249       -1.96927085752816        0.01316582305830
C            0.41543459564302       -1.06904323762765       -0.00231713174148
C            0.93095649141541        0.21794818242669        0.00102182066095
C            0.13790308203108        1.37299500427797       -0.00720958240860
O            0.52282978779131        2.56031232105568       -0.03473333812936
N           -1.27733737256752        1.08842364016457       -0.00197920130631
C           -2.24182300641637        2.21920041754423       -0.01409213324254
C           -1.81377273489437       -0.17528322964194       -0.02855741652462
O           -3.01735170315981       -0.39633109532688       -0.04371335995543
N           -0.93865433380917       -1.29303002646842       -0.02491073068049
C           -1.43256026267138       -2.65532750029182       -0.04006200745892
H            3.74713157796956        1.22355258739467        1.03966092975759
H            4.05479996375907        0.99553295910087       -0.69969078623945
H            2.72762135422047        2.06545537393064       -0.15442755964650
H            3.59503058955197       -1.73503837364609        0.04205081829476
H           -2.04403016722252        3.35853769740287        0.26499618870579
H           -2.58699534264627        2.36202881205274       -1.04406395517179
H           -3.14016983561747        1.87836539123861        0.59088405495640
H           -1.11853321036977       -3.20144404733378        0.85750169224656
H           -1.06508532806104       -3.20235506422973       -0.91735161489894
H           -2.51994890242341       -2.62143709207469       -0.07258162536691
H            1.33111802653472       -2.97042472491478        0.01442393122149
25
 energy: 16.002649371972 xtb: 6.6.1 (8d0f1dd)
C            3.28439256934257        1.13224682718712        0.03754014969511
N            2.33466394104934        0.07639353440461       -0.00618360532270
C            2.63080195966216       -1.31690799629206        0.02584163222344
N            1.40351786038242       -1.97611850633860        0.01547654297120
C            0.41749311904798       -1.07388555621602        0.00216180449843
C            0.92994523104348        0.21444248263781       -0.00288909287580
C            0.14005343869761        1.37084540169856       -0.00525815507402
O            0.51565495488416        2.55564200855654       -0.04646376136435
N           -1.29358605449080        1.10624175876382        0.03428718347900
C           -2.26421179545055        2.24533963756773       -0.00456483152081
C           -1.81706961192111       -0.16734164259731        0.00080784832974
O           -3.01586176917697       -0.40910860167015       -0.01903264262198
N           -0.93971453386775       -1.28712951863267       -0.01508923649831
C           -1.41292865353513       -2.65887684029396       -0.03508197925895
H            3.75178838930053        1.22015437471028        1.02687694400548
H            4.07148103483317        0.97347346822154       -0.70590220258564
H            2.74466842289253        2.05260838897486       -0.18224343350405
H            3.59454977133086       -1.75672176581532        0.03608179299677
H           -2.17354070136334        3.40506065759197        0.37722659885241
H           -2.46825722960951        2.48618894819414       -1.07471934068545
H           -3.22898884451262        1.83198525509307        0.46595975108441
H           -1.09483485550537       -3.20057201699237        0.86490331861653
H           -1.02490010448310       -3.20244457846739       -0.90719750324256
H           -2.50058645581601       -2.65363104567323       -0.07782749908492
H            1.32768458520170       -2.97885607244108        0.02232361303431
25
 energy: 18.218057519856 xtb: 6.6.1 (8d0f1dd)
C            3.28796723297541        1.11488174899427        0.02735458325540
N            2.33136815541255        0.05774868738746       -0.01772830995868
C            2.61903569763366       -1.32208653104391        0.02172232134865
N            1.40475233800729       -1.97799746260614        0.01564234078544
C            0.41387457731343       -1.07968721809044        0.00600731673982
C            0.92964951749962        0.20726015231554       -0.00590052930963
C            0.13307739501932        1.37529682383153       -0.00612340719841
O            0.49954202739675        2.54366718591994       -0.05985930258902
N           -1.31228168207307        1.12532813476564        0.08444122114131
C           -2.29115843103155        2.27152673133621        0.00012695387971
C           -1.82506021371829       -0.16318115586707        0.03827042834793
O           -3.01123794768829       -0.42692351980938        0.01162827483622
N           -0.93847899588066       -1.28149272979255       -0.00578686535527
C           -1.39431538442364       -2.66277142429999       -0.03482387613779
H            3.74756079866555        1.21305402203835        1.01859513394362
H            4.08400111610217        0.95140619643179       -0.70457709713099
H            2.76093841529928        2.04124979526873       -0.20447709073102
H            3.58734175074748       -1.76364575654871        0.02795310794876
H           -2.29815903579388        3.40861783992481        0.44329292944813
H           -2.35191475984895        2.59504101479234       -1.05342698011961
H           -3.25847730899579        1.82697460084399        0.32401442848292
H           -1.07575151924764       -3.19940169669252        0.86769639032595
H           -0.98636661789230       -3.19579055892059       -0.90379164285952
H           -2.48073454783551       -2.68516763170065       -0.08959771916184
H            1.33704209029339       -2.98487864630677        0.02638128621516
25
 energy: 18.797512127931 xtb: 6.6.1 (8d0f1dd)
C            3.28449602613137        1.10553585403394        0.01549430399045
N            2.32495852702084        0.04676332392688       -0.02945576370296
C            2.60353723511593       -1.30872912666590        0.01251818792857
N            1.40915243194040       -1.97427319034508        0.01568646674965
C            0.40499426831039       -1.08156203668406        0.01281432296349
C            0.92797118391893        0.20372429518560       -0.00051929592211
C            0.12401520473353        1.38096438843389        0.00907537269936
O            0.48862020156248        2.53959520728194       -0.07659679193682
N           -1.31992003583218        1.13016595150984        0.14219204725325
C           -2.29740434767297        2.28935026099048        0.00350434817357
C           -1.83694226757162       -0.16490863142155        0.06704755378793
O           -3.01478599576309       -0.43820553779396        0.04665059388606
N           -0.93934928172432       -1.27953549096484        0.00645964058569
C           -1.38867113494667       -2.66539198361007       -0.03009176201878
H            3.73489417874143        1.20336549154652        1.00928144111220
H            4.08356272406065        0.93197201215144       -0.70918635116989
H            2.76641827743658        2.03411480753472       -0.22424316570898
H            3.57649545291822       -1.74827586803200        0.00872420940649
H           -2.38870944917191        3.37626576186863        0.52280711761059
H           -2.18013823626832        2.68309478319977       -1.01817583225466
H           -3.29197999842752        1.79359782899791        0.13833572447213
H           -1.07129179521605       -3.19975424261585        0.87295547386164
H           -0.96800951537961       -3.18383704771345       -0.89946223767233
H           -2.47162979128941       -2.70171967071264       -0.09424501345666
H            1.35193080530925       -2.98328853793036        0.02546330550940
25
 energy: 16.663177461022 xtb: 6.6.1 (8d0f1dd)
C            3.27512091344647        1.10727428271838        0.01083905356635
N            2.31580045142733        0.04558728055103       -0.03621729449240
C            2.58731432786757       -1.28082898840989        0.00514355555383
N            1.41416868206505       -1.96665848036002        0.01620131767181
C            0.39310422850633       -1.07918745008019        0.02133814247435
C            0.92386063037961        0.20489707019206        0.01090883648461
C            0.10750855930154        1.38387441835872        0.02454759685993
O            0.47702876563967        2.53977930071756       -0.10291056184175
N           -1.31986030704491        1.11692075491303        0.18982585506798
C           -2.29009436459461        2.28800379455114       -0.00071920353349
C           -1.84991613520791       -0.17481861780545        0.08960468185585
O           -3.02398477192791       -0.44365823484833        0.07172295638629
N           -0.94196704568051       -1.28342558450506        0.01843559740536
C           -1.39491522406063       -2.66890543127744       -0.02909197167319
H            3.71727355489636        1.19741751041811        1.00743389237318
H            4.07407622047361        0.92447310219743       -0.70963875565625
H            2.76084424423803        2.03484961528649       -0.23120716295861
H            3.56444693791651       -1.71821831210220       -0.01050626368403
H           -2.45028081824085        3.29520185843300        0.55474173577086
H           -2.02396189829445        2.73207005268429       -0.93099032714468
H           -3.24360583602032        1.79301970782372       -0.03245788840703
H           -1.07996891376445       -3.20560219366801        0.87156089174712
H           -0.96983444897228       -3.17365646809335       -0.90166225780808
H           -2.47492838981423       -2.70349199051947       -0.09810527952056
H            1.36498530540131       -2.97588839500370        0.01823674964982
25
 energy: 21.323272232420 xtb: 6.6.1 (8d0f1dd)
C            3.26993250795999        1.11041090603661       -0.00331826499213
N            2.30997241669951        0.05251163348559       -0.05064505226248
C            2.58349534012312       -1.27044840748318       -0.00503576872338
N            1.41293337461174       -1.96697877908632        0.01752553318142
C            0.38791628167713       -1.07922092407934        0.03296793240246
C            0.91576381282828        0.20765703102800        0.02110651855154
C            0.09464974478957        1.37674262855974        0.04320265785516
O            0.46468688477100        2.53933106823819       -0.12664810719729
N           -1.32482901477757        1.10256976120191        0.24716696333080
C           -2.28091687433056        2.29058165858108        0.00295466480765
C           -1.85917993261542       -0.18331554260171        0.12336365105897
O           -3.03540623564691       -0.45274039095721        0.10456396164837
N           -0.94724930964347       -1.28919806838570        0.03768257639155
C           -1.39612192874770       -2.67559925382244       -0.02131348996421
H            3.70705593027487        1.19774249009260        0.99598847215017
H            4.06930154139357        0.91543185526799       -0.72029504325483
H            2.75734701186559        2.03538608740416       -0.25175005337194
H            3.56023428587479       -1.70646593144757       -0.03462928717068
H           -2.57348197330521        3.25683631136176        0.66797650751644
H           -1.78072062554340        2.85368425292338       -0.88630904210472
H           -3.27115608642815        1.75002951769058       -0.26718761548217
H           -1.08024816198853       -3.21617021092145        0.87672476517354
H           -0.96377116012464       -3.17177705363656       -0.89565866552953
H           -2.47547883938519       -2.71351538046768       -0.09454527790891
H            1.36748567760397       -2.97445665681067        0.01314536004141
25
 energy: 16.922111648826 xtb: 6.6.1 (8d0f1dd)
C            3.26719144093230        1.11866570715037        0.00251092956825
N            2.30862045377923        0.06221264202501       -0.04607253303813
C            2.59027699251139       -1.27546634826928       -0.00194067439011
N            1.41005654025614       -1.96880683479711        0.01858295413960
C            0.39139064114662       -1.07821634447948        0.03341058401282
C            0.91284632141444        0.21003152943134        0.02130251398920
C            0.09419087907577        1.37180809585485        0.03464341181741
O            0.46573042537394        2.53619246650711       -0.11855837590617
N           -1.32071630087306        1.09747904181307        0.22345764548017
C           -2.26511527324790        2.28396572319433       -0.00419968947972
C           -1.85327084076060       -0.18379142438074        0.11533779048993
O           -3.03478442275816       -0.44516344572075        0.09505791670598
N           -0.94843860928395       -1.29262149523915        0.03778356084578
C           -1.40028970126754       -2.67617278216566       -0.02340353021147
H            3.70707864907057        1.20557452968238        1.00155145208029
H            4.06645073571042        0.92670700789214       -0.71622653547437
H            2.75119523062646        2.04306655782689       -0.24400476041500
H            3.56457692516282       -1.71108134396855       -0.03227567374772
H           -2.55462880925788        3.25755763321951        0.62785076144765
H           -1.82729176372076        2.81745361057477       -0.85123428206273
H           -3.23049796618234        1.76889085317688       -0.23597590782016
H           -1.08607039618197       -3.22266067147322        0.87236982368001
H           -0.97376975296789       -3.17634881426376       -0.89956974188663
H           -2.48214899638516       -2.70539250474946       -0.09417194587292
H            1.35963226576347       -2.97485478666973        0.01080820219529
25
 energy: 15.580433848888 xtb: 6.6.1 (8d0f1dd)
C            3.25792612994809        1.13065902527374        0.00367890029779
N            2.30196134336728        0.07341460519629       -0.04603527627394
C            2.59509401646879       -1.27392636986481       -0.00410826532531
N            1.40925497666118       -1.96956910503593        0.01781820732445
C            0.39254681318526       -1.08011502870913        0.03668205267061
C            0.90522290879127        0.20968665109054        0.02535995851053
C            0.08203304308253        1.36282698464819        0.03591394199367
O            0.45507924111595        2.52891681025825       -0.10562432852754
N           -1.32477317398059        1.08392112610920        0.22437708383325
C           -2.25160838103072        2.27420927656477       -0.00970077381412
C           -1.85232805116058       -0.19369413314680        0.11731806550557
O           -3.03835042167634       -0.44738353806288        0.09415743597403
N           -0.95045158844335       -1.30257131539944        0.04468412464520
C           -1.40623958770928       -2.68227555317258       -0.02098124095000
H            3.70202149459344        1.21826138108330        1.00147877532741
H            4.05585919114112        0.94278746314885       -0.71767368955864
H            2.73850773828698        2.05410867421859       -0.24040267942329
H            3.56854397084105       -1.70609443784664       -0.04207702088901
H           -2.57831342939109        3.21745676538279        0.61522453772041
H           -1.75468098429806        2.84471997868695       -0.79002157958922
H           -3.17921337051515        1.79760387569645       -0.30016072087775
H           -1.09373975847282       -3.23671855414457        0.87100867674251
H           -0.98971190313514       -3.18421747125765       -0.90109928903940
H           -2.48969034674859       -2.69848361806012       -0.08659001986807
H            1.35726479701513       -2.97449489048555        0.00380701973807
25
 energy: 16.635101915151 xtb: 6.6.1 (8d0f1dd)
C            3.24935102419468        1.13994595917739        0.00156111458051
N            2.29605876389387        0.08105587860696       -0.04775049600948
C            2.59980050346018       -1.27391458386413       -0.00828489396941
N            1.40916586656701       -1.97098504936531        0.01537553206819
C            0.39407095536291       -1.08321027136418        0.04035539825402
C            0.89982302946348        0.20683753386820        0.03045544041716
C            0.07361685898679        1.35600343933700        0.04381567465249
O            0.45163326621063        2.52304445621884       -0.08747420461405
N           -1.32682923803145        1.07606595063565        0.23402311992301
C           -2.23234731949756        2.27246113694211       -0.01823568643512
C           -1.84950566657556       -0.20068480282454        0.12292351988481
O           -3.03906733689679       -0.44661621605563        0.09295985775495
N           -0.95133931689428       -1.31092014342450        0.05421980872083
C           -1.41299757097767       -2.68645596976312       -0.01539277904377
H            3.69896269753932        1.22906363883254        0.99717105325164
H            4.04466619627014        0.95756777450586       -0.72414588430224
H            2.72649540780444        2.06299283913155       -0.23861547531824
H            3.57286848626410       -1.70205664036675       -0.05662368979268
H           -2.64159500828800        3.18608054930670        0.62668204451797
H           -1.64783510361659        2.87443113183919       -0.69024199119050
H           -3.15131844686596        1.80342395657515       -0.44045820502416
H           -1.10084169452388       -3.24855092980542        0.87233451328665
H           -1.00864231388162       -3.19100127254601       -0.90003451191244
H           -2.49818031791556       -2.69015812539815       -0.07321664605691
H            1.35620094588369       -2.97539163802764       -0.00436871749598
25
 energy: 15.921069225365 xtb: 6.6.1 (8d0f1dd)
C            3.24426684887215        1.14249154388361        0.00022462465576
N            2.29286052097047        0.08082641199895       -0.04675061454716
C            2.60028625035804       -1.27297427069584       -0.00933830955780
N            1.41109197348501       -1.97087893068565        0.01276133687392
C            0.39355905975765       -1.08694916861670        0.03990991133622
C            0.89763306125825        0.20263584112244        0.03194420058566
C            0.06796841936620        1.35376702608136        0.05194583028262
O            0.44957027648908        2.52125538083097       -0.07339746833226
N           -1.33554120188076        1.07345614793689        0.23404898725236
C           -2.23666206779771        2.26985327013805       -0.02518803726127
C           -1.85233935193554       -0.20751933844958        0.12045713707038
O           -3.04095474810663       -0.45422903414590        0.08525000217569
N           -0.95101403139673       -1.31535867457021        0.05599609694295
C           -1.41424388879559       -2.68993361118161       -0.01148391608060
H            3.69790071666387        1.23202428133190        0.99373629365882
H            4.03725721877027        0.96514125821166       -0.72958514935642
H            2.71920918795715        2.06574710665830       -0.23545083631985
H            3.57491948992205       -1.69725549566071       -0.06168598542543
H           -2.65993332601548        3.16313087847370        0.62954263078949
H           -1.60277617653116        2.90712510464255       -0.66347234032282
H           -3.12709323863042        1.82061207714511       -0.47923118792055
H           -1.09916225128301       -3.25138979649902        0.87528884446186
H           -1.01541981701592       -3.19551124608045       -0.89824517733467
H           -2.49992831423015       -2.69100678751995       -0.06363434952688
H            1.36076005768529       -2.97603137217809       -0.00660862795278
25
 energy: 15.832080186993 xtb: 6.6.1 (8d0f1dd)
C            3.24411255708506        1.14076961938428        0.00020683858787
N            2.29335533956404        0.07766475383608       -0.04383223814551
C            2.59994701783654       -1.27388044764196       -0.00867028851818
N            1.41225529575111       -1.97074500108563        0.01005604251344
C            0.39334120919740       -1.08851394418424        0.03798617009779
C            0.89906964755537        0.20030993873991        0.03200761260102
C            0.07035631714186        1.35498125378430        0.05819439302340
O            0.45522632620513        2.52227934802389       -0.06120741275527
N           -1.33889963725535        1.07707498351990        0.22942443659078
C           -2.24151382960661        2.27171113319891       -0.03028194171451
C           -1.85332925405553       -0.20760927455620        0.11636635804398
O           -3.04051077006777       -0.45610572253334        0.07731361653420
N           -0.95012561490342       -1.31449658326844        0.05422685836361
C           -1.41363241729171       -2.68958872352987       -0.01037745990132
H            3.70085934513179        1.22943821550771        0.99203771541903
H            4.03477480202455        0.96658144798045       -0.73320081270658
H            2.71744125654988        2.06434818237571       -0.23147425435082
H            3.57569115563791       -1.69642596400495       -0.06154474440236
H           -2.65641586554034        3.16427026066399        0.62112845008398
H           -1.61642067919479        2.90040008023850       -0.65808147111987
H           -3.12547633159553        1.83023489192083       -0.47585758197480
H           -1.09510597231967       -3.24882084855594        0.87627371595522
H           -1.01712739321104       -3.19579668928491       -0.89796808356651
H           -2.49936481160493       -2.69242592061462       -0.05888201641178
H            1.36370697490242       -2.97662638774258       -0.00681000609956
25
 energy: 16.120259449263 xtb: 6.6.1 (8d0f1dd)
C            3.24353717803004        1.14066578669888       -0.00082823340662
N            2.29287717567469        0.07745108298786       -0.04204279577891
C            2.59929209219928       -1.27360472048517       -0.00783820892381
N            1.41232011625389       -1.97085404927664        0.00851491985370
C            0.39260619721711       -1.08919335599856        0.03714217254105
C            0.89857128239354        0.20006625389056        0.03186333770606
C            0.07081840441787        1.35393714059181        0.06073412835470
O            0.45672443288643        2.52161205056106       -0.05344180803982
N           -1.34160782327589        1.07662227582729        0.22785081441881
C           -2.24114038761951        2.27299529850595       -0.03212120337609
C           -1.85490725285471       -0.20851485273654        0.11476035964774
O           -3.04170953594276       -0.45756614877654        0.07398510850734
N           -0.95059578902418       -1.31457369297055        0.05391452357360
C           -1.41322836344372       -2.69038077596835       -0.00906561311054
H            3.70279743221756        1.22816672260688        0.98988761279940
H            4.03230798948178        0.96688562751138       -0.73666244243029
H            2.71553199858117        2.06407795050009       -0.23036200985631
H            3.57551563346505       -1.69507344890313       -0.06211534114713
H           -2.66546333881878        3.16123531202350        0.62130420556250
H           -1.60524219325354        2.90768217079687       -0.63880887400435
H           -3.12360081176308        1.83402990087412       -0.49755365385825
H           -1.09161476282369       -3.24839415112121        0.87721666462032
H           -1.01768049637402       -3.19653111733186       -0.89729006257728
H           -2.49907363272190       -2.69487114537755       -0.05554550883266
H            1.36517912303374       -2.97684151225836       -0.00646419609589
25
 energy: 16.417540612292 xtb: 6.6.1 (8d0f1dd)
C            3.24396949400782        1.14011274516901       -0.00174372701938
N            2.29289093131252        0.07731445839865       -0.03975858801068
C            2.59825739135303       -1.27336993612267       -0.00619485026815
N            1.41188546123148       -1.97089910519507        0.00753657286560
C            0.39177440546715       -1.08932324272796        0.03595584958521
C            0.89801184211393        0.20075712174545        0.03105433642450
C            0.07167786648791        1.35341116277511        0.06146706865493
O            0.45681250896700        2.52204747779711       -0.04839197276152
N           -1.34381044074119        1.07572818241761        0.22461594295530
C           -2.24215558975051        2.27313406520289       -0.03327151385369
C           -1.85654896561625       -0.20880133349513        0.11256671488420
O           -3.04302147109540       -0.45895876488085        0.07156494304753
N           -0.95125072179829       -1.31417959160698        0.05243934535717
C           -1.41240551582384       -2.69091780772805       -0.00851405633993
H            3.70560915908924        1.22673967353669        0.98795139640213
H            4.03094296613532        0.96571167499281       -0.73948594701425
H            2.71528285614559        2.06339109899105       -0.22988676596598
H            3.57472121429087       -1.69448576653271       -0.06110430714710
H           -2.67164067540079        3.16135256558035        0.62310388666195
H           -1.59995964760509        2.91228088787409       -0.62976293956418
H           -3.12156693267919        1.83658672138689       -0.50556204685429
H           -1.08831347464798       -3.24725797605423        0.87789075295125
H           -1.01679414331208       -3.19698317756510       -0.89675049430338
H           -2.49807049222771       -2.69747952769054       -0.05397761536940
H            1.36591664203279       -2.97688300409664       -0.00470808917059
25
 energy: 16.468552332574 xtb: 6.6.1 (8d0f1dd)
C            3.24469986947084        1.13967708581246       -0.00243172357374
N            2.29319314502330        0.07716946898295       -0.03739776167470
C            2.59729227896247       -1.27302453420282       -0.00464240339099
N            1.41146253857968       -1.97077447231224        0.00662283285123
C            0.39111257324200       -1.08921549369502        0.03480774366013
C            0.89752405822410        0.20163022794319        0.03038721079959
C            0.07227905467578        1.35326924915554        0.06241857575890
O            0.45544752922945        2.52290632274860       -0.04502855627541
N           -1.34539735070468        1.07444785937510        0.22330801076820
C           -2.24299723988132        2.27327489394535       -0.03277305802664
C           -1.85797416509236       -0.20890277183278        0.11180412592431
O           -3.04413006793797       -0.46037117460816        0.07108446133839
N           -0.95177969792263       -1.31390344896551        0.05052506607207
C           -1.41163894815015       -2.69137274260064       -0.00890841371826
H            3.70846373005543        1.22606774165720        0.98632408654079
H            4.03014099333778        0.96461764361018       -0.74160028396061
H            2.71575405066134        2.06288964285795       -0.22966625936126
H            3.57388642372232       -1.69428696703504       -0.06003193412507
H           -2.66999626390278        3.16164125271310        0.62144311942532
H           -1.59858292150504        2.91315903738821       -0.62738460221983
H           -3.12388016508447        1.83995496355312       -0.50579426948355
H           -1.08615296085760       -3.24636884303898        0.87779859753026
H           -1.01575376841740       -3.19734652962856       -0.89693596255665
H           -2.49703482917351       -2.69936780271427       -0.05385572776496
H            1.36627680138178       -2.97674200693714       -0.00303897839027
25
 energy: 16.595435990663 xtb: 6.6.1 (8d0f1dd)
C            3.24546551146593        1.13931540702961       -0.00279321634492
N            2.29375101738234        0.07691944083836       -0.03515602590747
C            2.59684803994472       -1.27302932625107       -0.00304770485399
N            1.41111698072339       -1.97062425651983        0.00628694061211
C            0.39094211816571       -1.08895391017660        0.03398170230575
C            0.89734364893666        0.20229060012141        0.02967478270009
C            0.07297483703223        1.35374257384849        0.06228832258520
O            0.45383987013951        2.52406558532660       -0.04483947904161
N           -1.34552462466075        1.07362793707955        0.22234934598122
C           -2.24329250249584        2.27326807855032       -0.03266712254745
C           -1.85837607131164       -0.20837681552215        0.11137761454821
O           -3.04438949414258       -0.46103390419746        0.07224167062770
N           -0.95192801874667       -1.31377600192150        0.04845475242676
C           -1.41136688352669       -2.69139467466313       -0.00972327738500
H            3.71044525062753        1.22657394558987        0.98537174779584
H            4.03007382001399        0.96347995165221       -0.74255880392633
H            2.71664392384703        2.06248515794991       -0.23021411043230
H            3.57329294312994       -1.69486959020129       -0.05909608542955
H           -2.66875468019529        3.16511729148979        0.62276791869094
H           -1.59973929250811        2.90990683962922       -0.63060128426136
H           -3.12517220254630        1.83990142253884       -0.50103655784382
H           -1.08625548893522       -3.24567681887692        0.87756012246104
H           -1.01509834754701       -3.19775606351917       -0.89719015971873
H           -2.49659047626944       -2.69961166086496       -0.05498070323008
H            1.36596478941289       -2.97656260675834       -0.00141649366498
25
 energy: 16.538080087314 xtb: 6.6.1 (8d0f1dd)
C            3.24502247701846        1.13970297951730       -0.00268797086228
N            2.29372450015060        0.07690196414428       -0.03446074054044
C            2.59728333558802       -1.27306688941088       -0.00273399267964
N            1.41139120665184       -1.97054768629547        0.00619433311129
C            0.39118412318070       -1.08910131832951        0.03403393440336
C            0.89735788110576        0.20188112400691        0.02978591885730
C            0.07267478634470        1.35377147539420        0.06248935786710
O            0.45348434765413        2.52385937991019       -0.04546854338209
N           -1.34534826284632        1.07349593135456        0.22299752813758
C           -2.24283054402797        2.27347670031566       -0.03249558367650
C           -1.85811432309035       -0.20851859205057        0.11167013348073
O           -3.04413002032109       -0.46130048900907        0.07308260714107
N           -0.95167885481848       -1.31429051620304        0.04806353716594
C           -1.41173249052804       -2.69151430148712       -0.00994750414544
H            3.70992709197938        1.22781340895494        0.98542282608315
H            4.02977205740760        0.96405483830844       -0.74238921028241
H            2.71602090432541        2.06274852796399       -0.23049513678421
H            3.57365306032211       -1.69489507828254       -0.05973931605036
H           -2.66627703374756        3.16528854748192        0.62215100109428
H           -1.59924992622565        2.90960442692897       -0.63176640828988
H           -3.12560097942384        1.83951295121785       -0.49991264289642
H           -1.08743083115090       -3.24608519284231        0.87749136384254
H           -1.01570703158137       -3.19839935219201       -0.89726152252899
H           -2.49713813306601       -2.69883606049590       -0.05530544010247
H            1.36595732703521       -2.97652817672907       -0.00168463281598
