25
 energy: 0.000000000000 xtb: 6.6.1 (8d0f1dd)
C            3.23720163006194        1.16630919979326        0.08434469647475
N            2.29877817382611        0.07527477071623        0.03981603040599
C            2.58028210190900       -1.21425402444508        0.03006176031096
N            1.43813958087363       -1.93419271955128        0.00098261760884
C            0.39035688448383       -1.05887472636071       -0.00790371836672
C            0.93510056364412        0.21347819449412        0.01709077491437
C            0.09450143893243        1.40504303904423       -0.00410947031874
O            0.49712751527797        2.54126714362870       -0.00342325688240
N           -1.25076640035757        1.06271879480407       -0.03085478223738
C           -2.21907211982101        2.15522099834493       -0.05001256985998
C           -1.81739487048744       -0.20012725993278       -0.04692818574614
O           -2.99983886758376       -0.37846417018721       -0.07008878229737
N           -0.92618586207120       -1.30210215599479       -0.03682761578324
C           -1.46982264913417       -2.64643102187190       -0.06029820460571
H            3.71247264356769        1.21471455160235        1.06488849150277
H            4.00791497605742        1.03430808813993       -0.67357694370751
H            2.69910007168542        2.09770118228144       -0.09130154882931
H            3.56654120610678       -1.63682992603973        0.04233140067262
H           -1.67107961066214        3.09322851271934       -0.02552706933167
H           -2.82428953597071        2.09428624779827       -0.95318082946668
H           -2.87644029173232        2.07745725625962        0.81450067533302
H           -1.17061996399332       -3.19584890659852        0.83242232437030
H           -1.14560257411436       -3.17511610292205       -0.95688275822323
H           -2.55549792440841       -2.55659984320617       -0.07459039797972
H            1.38130855184625       -2.94313852034425       -0.01389874181052
25
 energy: -1.531800586720 xtb: 6.6.1 (8d0f1dd)
C            3.23676377787059        1.18507582861868        0.08527847805999
N            2.33233507112370        0.07730752855987        0.03755568517223
C            2.65294451464740       -1.26682564257733        0.03156896492359
N            1.44625163494524       -1.93764982593964        0.00144349638716
C            0.40726541423079       -1.05107962012603       -0.00850052549518
C            0.94375917454567        0.22292142374722        0.01487101201111
C            0.09558432480489        1.39989888606033       -0.00480252582549
O            0.48112725510066        2.56944885117199       -0.00320128818767
N           -1.27057501356234        1.05975500152779       -0.03110158386335
C           -2.24201762560708        2.15266107076237       -0.04944047891251
C           -1.82849538083274       -0.19282832376964       -0.04798564337857
O           -3.02524322065647       -0.37808515399411       -0.07147144378355
N           -0.93133650120055       -1.29013417204427       -0.03752956727611
C           -1.47828140456311       -2.62957890705004       -0.06077201165346
H            3.70766877975193        1.24112356117708        1.06883982795446
H            4.00312666165928        1.05997815658616       -0.67791017228684
H            2.67912238288465        2.10666927960961       -0.09174749147029
H            3.68248649904641       -1.79113992925710        0.04721340512196
H           -1.69487523572944        3.09259457532622       -0.02482913933275
H           -2.85176070959785        2.09815718033092       -0.95178128304928
H           -2.90340538833575        2.08052752903657        0.81431037640734
H           -1.17660959211324       -3.18082139548202        0.83144915629987
H           -1.15167452170941       -3.16035741156689       -0.95673463649012
H           -2.56479464021476       -2.54138202845955       -0.07514356230402
H            1.36284841144776       -2.93720786007616       -0.01254515288127
25
 energy: 10.739696614822 xtb: 6.6.1 (8d0f1dd)
C            3.23254099369394        1.20139578266035        0.08536571314258
N            2.36451984140105        0.06693806917126        0.03337395561354
C            2.72440962597622       -1.31952871986980        0.03351765940512
N            1.45556376672054       -1.93472562138665        0.00276632544478
C            0.42510067941263       -1.04428700656343       -0.00891082208992
C            0.95600834774095        0.22977671385821        0.01244735241812
C            0.10048908705004        1.39148734718449       -0.00512571484279
O            0.45195131045078        2.57979157703479       -0.00275032782780
N           -1.28762230263900        1.06137301450265       -0.03125022730575
C           -2.26460555530649        2.15318786290678       -0.04856584733521
C           -1.83010142973297       -0.18414283579320       -0.04896230353588
O           -3.03056761063103       -0.37875124230735       -0.07323614081746
N           -0.93106152457562       -1.27493242402693       -0.03818978127759
C           -1.48569299738316       -2.60921945148162       -0.06144573707614
H            3.70119066321414        1.27926336719584        1.06998092532559
H            4.00078372651632        1.10145359930171       -0.68000806357609
H            2.65171023641280        2.11165076276494       -0.09238400933530
H            3.79072769065519       -1.96686385369971        0.05260964111046
H           -1.72590280966202        3.09851612299247       -0.02376232721375
H           -2.88053020070497        2.09992796557474       -0.94873251124200
H           -2.93120839309075        2.08105497469713        0.81317140049548
H           -1.18673725839631       -3.16329203347810        0.83067830875155
H           -1.16175345342560       -3.14305234685877       -0.95733934489053
H           -2.57291331835312       -2.51859835937501       -0.07590729010135
H            1.34591555259266       -2.92939466283278       -0.01030693709234
25
 energy: 22.169307367075 xtb: 6.6.1 (8d0f1dd)
C            3.22564698016792        1.21053380876771        0.08486215835763
N            2.37702246621956        0.05879792579211        0.03056797203907
C            2.75752292140388       -1.34711209795464        0.03450465355163
N            1.46311770843258       -1.93557466946273        0.00451686840087
C            0.43407814364240       -1.04516973482619       -0.00834840736094
C            0.96180190535346        0.23181796427176        0.01196295292771
C            0.10612824404370        1.39149576745871       -0.00474787471470
O            0.43693476005747        2.58279417109985       -0.00234264947911
N           -1.29330563127521        1.06735437978551       -0.03133592870657
C           -2.27532727348487        2.15566134419840       -0.04811050344968
C           -1.82799064907471       -0.17957657514322       -0.04955870613419
O           -3.02808991967214       -0.37960272233639       -0.07479950245796
N           -0.92781430536133       -1.26791770935182       -0.03820250272624
C           -1.49048680109177       -2.59860734261997       -0.06183226658703
H            3.69252754211375        1.30326760774618        1.06959129115217
H            3.99759898526120        1.13120230487744       -0.67985711904480
H            2.63000120664412        2.11212637819120       -0.09364868191306
H            3.85936469300212       -2.06846116165387        0.05382089795549
H           -1.74533552396275        3.10530659615084       -0.02311235595652
H           -2.89374581668219        2.09889363096271       -0.94717249715088
H           -2.94379998693735        2.07913085362663        0.81270079736832
H           -1.19607017968802       -3.15349105645796        0.83088358357164
H           -1.17070198932995       -3.13317055788177       -0.95839231488977
H           -2.57773792758456       -2.50108186681559       -0.07649839522247
H            1.34087511573890       -2.92958863625291       -0.00841757338330
25
 energy: 28.838784811413 xtb: 6.6.1 (8d0f1dd)
C            3.22160064261171        1.21399349460621        0.08474823603953
N            2.37618148044621        0.05949181506038        0.02919201726815
C            2.76374652810725       -1.35228247168213        0.03476773827193
N            1.46568171627159       -1.93453039991555        0.00513411484686
C            0.43442410195012       -1.04611254658975       -0.00796022023983
C            0.96035601919187        0.23368524341498        0.01212683714458
C            0.10758512681386        1.39529775583161       -0.00467539598572
O            0.42999579924599        2.58484565315093       -0.00223487877733
N           -1.29545037267734        1.07114478738977       -0.03144292187376
C           -2.27851383355985        2.15757419533331       -0.04807305502877
C           -1.82867766546227       -0.17820475308465       -0.04967119946650
O           -3.02799876782888       -0.37927806747036       -0.07524378217627
N           -0.92733672412795       -1.26603642888965       -0.03800456751911
C           -1.49225202263960       -2.59672697069084       -0.06183269693874
H            3.68762495933058        1.30786714224144        1.06935244843890
H            3.99421837696715        1.13801182401794       -0.67897749386276
H            2.62498781159810        2.11373814426769       -0.09445733722728
H            3.90168006006189       -2.11090865287310        0.05397022574327
H           -1.75062246928358        3.10778880033207       -0.02307338588284
H           -2.89687641149596        2.09926707279765       -0.94718745835338
H           -2.94674401850230        2.07938049386663        0.81293390754234
H           -1.19889477002463       -3.15133101391168        0.83088398634784
H           -1.17348591940826       -3.13087113298003       -0.95849995386180
H           -2.57957903135268       -2.49810945886226       -0.07653942714450
H            1.34056405170321       -2.92866592318859       -0.00820184115752
25
 energy: 39.877594757142 xtb: 6.6.1 (8d0f1dd)
C            3.21784662355814        1.21754843304560        0.08474347128986
N            2.36829086890733        0.06637244300850        0.02730851358769
C            2.75934038583835       -1.34879710086716        0.03487808027928
N            1.46596795333236       -1.93049416589358        0.00552965202967
C            0.42988107150673       -1.04615705643244       -0.00765183198954
C            0.95393008383663        0.23727850171069        0.01261779751295
C            0.10723127588571        1.40265633323445       -0.00471721369994
O            0.42119693131849        2.58886021164307       -0.00201076708279
N           -1.29882562486519        1.07478728152289       -0.03165733175788
C           -2.28186986768588        2.15935972171033       -0.04817789811526
C           -1.83255480665200       -0.17742767504021       -0.04973430475039
O           -3.03053915183462       -0.37821497505151       -0.07540532298492
N           -0.92921291577627       -1.26446666265915       -0.03775776843841
C           -1.49435202423848       -2.59675092100950       -0.06175827370375
H            3.68355477156112        1.30778620259410        1.06929000924083
H            3.99053247334691        1.13840876623835       -0.67779387301434
H            2.62563292677617        2.11828347344279       -0.09530056179754
H            3.97675523593716       -2.16693459913527        0.05467193547077
H           -1.75453980469959        3.10934232826119       -0.02318119710918
H           -2.89972836653931        2.10072549104199       -0.94751070032492
H           -2.94949068984183        2.08084268974323        0.81319210446338
H           -1.20028901192279       -3.15010342092256        0.83086635963224
H           -1.17499664009572       -3.12947528323870       -0.95845343149498
H           -2.58176984363706       -2.49923118898640       -0.07643874340305
H            1.34022281391988       -2.92517022578866       -0.00851480769253
25
 energy: 55.233573926286 xtb: 6.6.1 (8d0f1dd)
C            3.21501036919236        1.22152614477267        0.08485397085785
N            2.35360562350847        0.08031631814048        0.02517885851491
C            2.73872965111307       -1.33241527551915        0.03384583227704
N            1.46111932068078       -1.92295196076589        0.00538165661797
C            0.41955198094445       -1.04325548953163       -0.00751944218072
C            0.94253395801499        0.24277858886432        0.01350254277357
C            0.10343111306584        1.41131581041570       -0.00458648865117
O            0.41294399387290        2.59503653467226       -0.00158201915564
N           -1.30426657096446        1.07642675056468       -0.03188950142779
C           -2.28554305566014        2.16062743736652       -0.04849424500078
C           -1.84030902851928       -0.17695047309559       -0.04971044670250
O           -3.03694543599203       -0.37649800726150       -0.07530797961670
N           -0.93507782952096       -1.26301324534914       -0.03748487286147
C           -1.49676153592320       -2.59832075915320       -0.06163973756550
H            3.68144142396855        1.30378725368576        1.06957823623185
H            3.98700735882740        1.13220863922561       -0.67729173642787
H            2.63100557298746        2.12687538440135       -0.09540924980787
H            4.09649590222918       -2.24313012826238        0.05682618774418
H           -1.75652350531537        3.10980401552031       -0.02344855135034
H           -2.90261413544963        2.10335591554628       -0.94819641197311
H           -2.95252524179548        2.08359198146904        0.81324157404941
H           -1.19992484987202       -3.14998045792924        0.83084345168774
H           -1.17472943870238       -3.12920488282264       -0.95822640225147
H           -2.58417075063492       -2.50431955940035       -0.07632361049464
H            1.33872977788064       -2.91858193338223       -0.00910771913966
25
 energy: 55.045914516175 xtb: 6.6.1 (8d0f1dd)
C            3.20322011636717        1.23207804175600        0.08492262645531
N            2.31694750732493        0.11008932698540        0.02021839114483
C            2.69045006922095       -1.29309460967695        0.02103418060633
N            1.45217910186751       -1.89952923131717        0.00465970771504
C            0.39639079463842       -1.03455311193335       -0.00627371342322
C            0.91617448704048        0.25796625753510        0.01659148163354
C            0.09561491275423        1.43243503723482       -0.00268031108844
O            0.39254113142610        2.60695625735862       -0.00069926567654
N           -1.31675964250436        1.08366324203795       -0.03241198271312
C           -2.29499971791787        2.16466178923306       -0.04918998719817
C           -1.85551640270704       -0.17489071784232       -0.04987667534113
O           -3.04822386673688       -0.37300964702849       -0.07583818415716
N           -0.94805021657773       -1.25768168594441       -0.03636034342391
C           -1.50188009316691       -2.59953629171159       -0.06134712254154
H            3.67219460082586        1.29982042671162        1.06844056655336
H            3.97501734314609        1.12650880902350       -0.67517350239788
H            2.63427874623996        2.14410562333172       -0.09583357458935
H            4.39091424776324       -2.45943123960063        0.06883301592799
H           -1.76416084344499        3.11248730778189       -0.02392081815129
H           -2.90981190882155        2.10686594821587       -0.94975060715539
H           -2.95981500912526        2.08710867143925        0.81359091657406
H           -1.20040739061257       -3.14769587964299        0.83089705663489
H           -1.17512470041039       -3.12656497938236       -0.95774016965172
H           -2.58900298150853       -2.51065765693828       -0.07620948780136
H            1.34004438285534       -2.89907308545423       -0.00884830178784
25
 energy: 54.117020125729 xtb: 6.6.1 (8d0f1dd)
C            3.18791328700689        1.23914148011011        0.08380194320791
N            2.27249367819218        0.13547433655778        0.02168082245318
C            2.63217847189836       -1.23849464046061        0.02074093775315
N            1.44007198130476       -1.86778775677150        0.00407386939870
C            0.36752591247750       -1.01964459920723       -0.00598215487726
C            0.88874346523855        0.27089024689621        0.01816186944546
C            0.08043415258244        1.45341289522673       -0.00395234594150
O            0.37238138160393        2.61027074350738       -0.00044898911769
N           -1.32693256261541        1.09300486059218       -0.03298442154637
C           -2.30395157379963        2.16969479200766       -0.04926050317147
C           -1.87024878368009       -0.17384479068444       -0.05006262485810
O           -3.05890383055697       -0.36825419678504       -0.07581426800350
N           -0.96284495944199       -1.25036863374593       -0.03658478035608
C           -1.50634402779888       -2.60002921951760       -0.06145601643371
H            3.66097459785561        1.29314925783954        1.06496146411322
H            3.96117941268576        1.11569377876790       -0.67196305819732
H            2.63877900732384        2.16036052966724       -0.09809227645954
H            4.71454909545556       -2.69063135579213        0.07371938079693
H           -1.77249872528128        3.11677686576480       -0.02397147362766
H           -2.91632035272585        2.10955887379837       -0.95038493674687
H           -2.96618591910157        2.08972637257263        0.81436457305156
H           -1.19956383692991       -3.14471164274870        0.83028909624717
H           -1.17447988728547       -3.12356479046152       -0.95720024728354
H           -2.59318358043052       -2.51750888485977       -0.07624963068285
H            1.34644826395842       -2.87328592010207       -0.01035233301650
25
 energy: 52.723901230147 xtb: 6.6.1 (8d0f1dd)
C            3.17689435959644        1.23653446444419        0.08252252409033
N            2.24617181404865        0.14026195564210        0.03097868734560
C            2.59454138939076       -1.18335878858157        0.02602390312751
N            1.42265350302828       -1.84198874741014        0.00335349214405
C            0.34574608946296       -0.99960558211889       -0.00670505080885
C            0.87370083655298        0.27765664693434        0.01719206008559
C            0.05614173531429        1.45608620485273       -0.00535952616853
O            0.36571545339470        2.61487804629796       -0.00099428080559
N           -1.33367924904558        1.09401709696804       -0.03287007266645
C           -2.30836770518564        2.17292038809003       -0.04918643671715
C           -1.87997530091206       -0.17381412500304       -0.05021888485727
O           -3.07112931478189       -0.36303707978983       -0.07551211099249
N           -0.98128628741334       -1.24569187100534       -0.03806877966707
C           -1.50930355222582       -2.59967869852537       -0.06189357364006
H            3.65374604416087        1.28453654962651        1.06203292361972
H            3.94977078501840        1.09931575124026       -0.67177273645354
H            2.64317248452777        2.16720100227228       -0.09947990645611
H            4.93962812604771       -2.82689608340909        0.07191775075284
H           -1.77252338468852        3.11850776471971       -0.02385229727269
H           -2.91867835313090        2.11220138356914       -0.95097401728922
H           -2.96871739750440        2.09234033165241        0.81500690282148
H           -1.19665031545801       -3.14380512459041        0.82940901254589
H           -1.17174139491251       -3.12312127642568       -0.95670132651277
H           -2.59601671908475       -2.52559448616324       -0.07658045225536
H            1.35240102173583       -2.85083712111507       -0.01123390782260
25
 energy: 52.397506459370 xtb: 6.6.1 (8d0f1dd)
C            3.17038617341545        1.23713354586782        0.08202299978554
N            2.23598673244475        0.14143021992538        0.03602830866706
C            2.58019732258922       -1.15110133217464        0.02886601860884
N            1.40657059779626       -1.83489570057694        0.00237397060035
C            0.33550351224806       -0.98761983501701       -0.00856390370149
C            0.86318530228425        0.28534278990158        0.01509660054693
C            0.03292329399547        1.45381604464757       -0.00411471297459
O            0.36719173974967        2.61602776527204       -0.00142446725473
N           -1.33916084654786        1.09568834825649       -0.03225887699977
C           -2.31330309345754        2.17690626635708       -0.04937303027851
C           -1.88390502819370       -0.17231454160094       -0.05026177320922
O           -3.07859111523066       -0.35683093594168       -0.07515024732394
N           -0.99420491058474       -1.24437551383195       -0.03947583456014
C           -1.51145817234190       -2.59882422956238       -0.06213880160680
H            3.64971532556599        1.28183988219131        1.06116650304939
H            3.94199421128142        1.09221932256261       -0.67278657380538
H            2.64292991552111        2.17236916266722       -0.09900697053941
H            5.08300557521776       -2.90909683903244        0.07072509739735
H           -1.77278609336557        3.12055600543945       -0.02390641981087
H           -2.92174581252794        2.11562743844029       -0.95190139776307
H           -2.97245882057327        2.09592012878367        0.81509773389386
H           -1.19478872295290       -3.14309146516035        0.82892028605210
H           -1.17024595923597       -3.12302976852912       -0.95628175960445
H           -2.59833954517031       -2.53122030393432       -0.07661618544051
H            1.35361308600914       -2.84344785277869       -0.01000266758126
25
 energy: 52.298059533965 xtb: 6.6.1 (8d0f1dd)
C            3.16986763769977        1.23841852140107        0.08218230021225
N            2.23608087863613        0.14262608348188        0.03690025511653
C            2.58119409197503       -1.14979047888006        0.02997376196330
N            1.40113510084987       -1.83819342933769        0.00185742894249
C            0.33673721376324       -0.98598459066365       -0.00903811117036
C            0.86015827132631        0.28924371499972        0.01418727942629
C            0.02471350093836        1.45282905978194       -0.00491406052546
O            0.36969678100607        2.61566282791042       -0.00212818560433
N           -1.34060787621589        1.09684086863248       -0.03246953359874
C           -2.31523452980320        2.17808297900730       -0.04914633101510
C           -1.88305193553536       -0.17170187496728       -0.05014677164079
O           -3.07878645729674       -0.35569028444745       -0.07471427273214
N           -0.99509409723731       -1.24457586542035       -0.03965769788831
C           -1.51103907723757       -2.59777646303505       -0.06221417807406
H            3.64947429317442        1.28254713992333        1.06141824899759
H            3.94128793323080        1.09188443572683       -0.67274162460076
H            2.64225557062596        2.17338787760165       -0.09902140266985
H            5.10205152635656       -2.92051558273754        0.07102624694275
H           -1.77265039047328        3.12064682099090       -0.02396384305383
H           -2.92319333830619        2.11600489575538       -0.95168753162016
H           -2.97340368363703        2.09644652192164        0.81575410819951
H           -1.19447407354357       -3.14253237507058        0.82887110182983
H           -1.16975474456770       -3.12259002685629       -0.95625497774514
H           -2.59805379196647       -2.53111169550320       -0.07678024306948
H            1.35290586417401       -2.84513047804340       -0.01025807047479
25
 energy: 52.247245497654 xtb: 6.6.1 (8d0f1dd)
C            3.17025611783720        1.23850069378587        0.08205177157192
N            2.23644985414140        0.14307024570912        0.03704718267283
C            2.58137738438697       -1.15009353908533        0.03013272618768
N            1.39777837906464       -1.84050797897029        0.00189011663713
C            0.33861601608384       -0.98572851815658       -0.00913264692231
C            0.85908656088896        0.29080232275821        0.01409350094155
C            0.01997679747198        1.45191944785003       -0.00445168709799
O            0.37317211238774        2.61409325220674       -0.00152867837137
N           -1.34016938823306        1.09752466939155       -0.03230687416860
C           -2.31564089987614        2.17838286209558       -0.04926747797989
C           -1.88175139987009       -0.17179213696840       -0.05013572216609
O           -3.07795760947639       -0.35517693581640       -0.07491846800808
N           -0.99455464837946       -1.24499830379104       -0.03958122715327
C           -1.51076397095167       -2.59719959290306       -0.06219841192359
H            3.65007721750439        1.28268101859054        1.06121668416017
H            3.94163723111190        1.09246280701693       -0.67309364084584
H            2.64160098177330        2.17271602772586       -0.09880226393105
H            5.10066796829693       -2.91779128691042        0.07039430810683
H           -1.77250875035931        3.12059516882008       -0.02388608075265
H           -2.92298337483271        2.11577186437330       -0.95197401891810
H           -2.97376392644316        2.09613915485884        0.81536645835194
H           -1.19474005428259       -3.14253510588342        0.82884944182486
H           -1.16997176062919       -3.12257538611669       -0.95620870168657
H           -2.59791437081964       -2.53065219658409       -0.07676305695338
H            1.35423820114038       -2.84657995182491       -0.00975933742885
25
 energy: 52.224352368473 xtb: 6.6.1 (8d0f1dd)
C            3.17062020487035        1.23817125794789        0.08220931560440
N            2.23670487200926        0.14292304661187        0.03691682908039
C            2.58138260100969       -1.15076972852009        0.03027453951852
N            1.39704988446619       -1.84094333963430        0.00175541607831
C            0.33928032322002       -0.98593067242410       -0.00924619424319
C            0.85925443641881        0.29072227891738        0.01385549159957
C            0.01883364197022        1.45178767674532       -0.00504567126365
O            0.37389898247997        2.61377717282620       -0.00199671402892
N           -1.33976151877916        1.09763102175647       -0.03248784340748
C           -2.31557282769923        2.17839563935388       -0.04914981872246
C           -1.88164439659690       -0.17215075860890       -0.05012991251264
O           -3.07789848128393       -0.35494401156187       -0.07470100647126
N           -0.99441999463611       -1.24502271217290       -0.03958422953188
C           -1.51072379962525       -2.59718156931735       -0.06219923299832
H            3.65017336358405        1.28245602424400        1.06148855371268
H            3.94208526654477        1.09212947733899       -0.67282461963073
H            2.64195775317673        2.17244047209480       -0.09878783039136
H            5.09689019484027       -2.91415151576450        0.07063951796748
H           -1.77238576278817        3.12058747689560       -0.02395546738979
H           -2.92323933541891        2.11587720237404       -0.95162750804445
H           -2.97343676475817        2.09627982915038        0.81567191558278
H           -1.19462135905546       -3.14256051261034        0.82882973648870
H           -1.16991184524595       -3.12260835928156       -0.95620286184031
H           -2.59793282851620       -2.53086991678570       -0.07674757355967
H            1.35563205774933       -2.84701687740319       -0.00992093544939
25
 energy: 52.213462459305 xtb: 6.6.1 (8d0f1dd)
C            3.17063850673789        1.23795598708378        0.08203117769222
N            2.23680223313399        0.14259386957584        0.03671597890105
C            2.58119370520178       -1.15145984361593        0.03011512916943
N            1.39676746204175       -1.84091763256685        0.00196488010892
C            0.33936637316974       -0.98611171975129       -0.00904631180623
C            0.85965624217219        0.29026679172012        0.01428276300732
C            0.01871675306459        1.45181688065079       -0.00430987585124
O            0.37431777388826        2.61362783289252       -0.00131324184242
N           -1.33923628640062        1.09767361259442       -0.03220737786261
C           -2.31533733667716        2.17828271486198       -0.04933011447718
C           -1.88178342566732       -0.17251644932837       -0.05009202480671
O           -3.07798833830708       -0.35451512280189       -0.07498314201451
N           -0.99462269694811       -1.24480062916080       -0.03942294283722
C           -1.51088302564887       -2.59717950430306       -0.06219635693908
H            3.65031578791234        1.28239438204449        1.06122313616684
H            3.94188045513185        1.09229596527723       -0.67325819847509
H            2.64171029456685        2.17224694361856       -0.09873802902203
H            5.09541752102645       -2.91201469765384        0.07026726511874
H           -1.77244713183387        3.12066545975137       -0.02389952861439
H           -2.92265155827366        2.11570853845601       -0.95206441872420
H           -2.97361463102081        2.09610994450638        0.81519596417479
H           -1.19477222427337       -3.14255997956867        0.82882218834449
H           -1.16993952018086       -3.12251261157771       -0.95620542148430
H           -2.59804442392530       -2.53084933973902       -0.07680385308671
H            1.35675215904557       -2.84717279079402       -0.00971374869258
