25
 energy: 0.000000000000 xtb: 6.6.1 (8d0f1dd)
C            3.23720163006194        1.16630919979326        0.08434469647475
N            2.29877817382611        0.07527477071623        0.03981603040599
C            2.58028210190900       -1.21425402444508        0.03006176031096
N            1.43813958087363       -1.93419271955128        0.00098261760884
C            0.39035688448383       -1.05887472636071       -0.00790371836672
C            0.93510056364412        0.21347819449412        0.01709077491437
C            0.09450143893243        1.40504303904423       -0.00410947031874
O            0.49712751527797        2.54126714362870       -0.00342325688240
N           -1.25076640035757        1.06271879480407       -0.03085478223738
C           -2.21907211982101        2.15522099834493       -0.05001256985998
C           -1.81739487048744       -0.20012725993278       -0.04692818574614
O           -2.99983886758376       -0.37846417018721       -0.07008878229737
N           -0.92618586207120       -1.30210215599479       -0.03682761578324
C           -1.46982264913417       -2.64643102187190       -0.06029820460571
H            3.71247264356769        1.21471455160235        1.06488849150277
H            4.00791497605742        1.03430808813993       -0.67357694370751
H            2.69910007168542        2.09770118228144       -0.09130154882931
H            3.56654120610678       -1.63682992603973        0.04233140067262
H           -1.67107961066214        3.09322851271934       -0.02552706933167
H           -2.82428953597071        2.09428624779827       -0.95318082946668
H           -2.87644029173232        2.07745725625962        0.81450067533302
H           -1.17061996399332       -3.19584890659852        0.83242232437030
H           -1.14560257411436       -3.17511610292205       -0.95688275822323
H           -2.55549792440841       -2.55659984320617       -0.07459039797972
H            1.38130855184625       -2.94313852034425       -0.01389874181052
25
 energy: -2.518697519988 xtb: 6.6.1 (8d0f1dd)
C            3.23807192379959        1.18418456277742        0.08543478966573
N            2.33064746389329        0.07871122912359        0.03753006637227
C            2.64702669394038       -1.26374352985880        0.03146322161669
N            1.44441373289789       -1.93865358285768        0.00139395051084
C            0.40679156970407       -1.05187611854046       -0.00852690085551
C            0.94325958239079        0.22256308255896        0.01482079207099
C            0.09688782797184        1.39921245593276       -0.00488900942991
O            0.48352199359151        2.56848715450094       -0.00332809664877
N           -1.26911805026590        1.05869797607639       -0.03110308829978
C           -2.24004084518898        2.15163107162081       -0.04943505513007
C           -1.82759824763100       -0.19365998274345       -0.04795362051802
O           -3.02438946703830       -0.37872911257789       -0.07139146911732
N           -0.93107213856164       -1.29110741096933       -0.03751869174048
C           -1.47759582897412       -2.63047780502541       -0.06073805942442
H            3.70952238688771        1.24013193961768        1.06894999588497
H            4.00466453604021        1.05919095269152       -0.67791528133463
H            2.68031933238970        2.10539715594107       -0.09147150219640
H            3.66838586718719       -1.77595174848595        0.04688365055143
H           -1.69197184238011        3.09095036399933       -0.02483034129156
H           -2.84962848831085        2.09734598582783       -0.95184800813109
H           -2.90128688802183        2.07976576757598        0.81440090748402
H           -1.17596103123693       -3.18172462782411        0.83151710433789
H           -1.15101551426677       -3.16126551818221       -0.95672819663835
H           -2.56395137971403       -2.54136609925925       -0.07510249544878
H            1.36233147883252       -2.93868555974771       -0.01258076614247
25
 energy: 6.246524375675 xtb: 6.6.1 (8d0f1dd)
C            3.23575943526113        1.19915978631077        0.08562006366155
N            2.36156735682587        0.06949658011056        0.03329261644288
C            2.71047416526493       -1.31276964123078        0.03337276947967
N            1.45160787338141       -1.93731342927062        0.00269207608940
C            0.42428750369404       -1.04599601946762       -0.00904831594281
C            0.95563279203915        0.22862057419194        0.01218991722993
C            0.10347499987060        1.38974788033413       -0.00541021277006
O            0.45808743359339        2.57722740504506       -0.00308549179863
N           -1.28407122781871        1.05892329253259       -0.03126244367899
C           -2.26019191172105        2.15061349824430       -0.04849125078493
C           -1.82785677589824       -0.18601809438111       -0.04893493876050
O           -3.02828684896481       -0.38028186488015       -0.07308524648469
N           -0.93005279921767       -1.27703434243081       -0.03821171970142
C           -1.48405103595058       -2.61099810746302       -0.06139943718593
H            3.70540273988840        1.27698728914742        1.07006384580233
H            4.00436816886804        1.10003597750217       -0.68010263210958
H            2.65409378210571        2.10845629582111       -0.09162988550399
H            3.75609832982291       -1.93051548545688        0.05211600126022
H           -1.71978007527063        3.09481721491213       -0.02368835055775
H           -2.87586740477111        2.09773633561211       -0.94870907350078
H           -2.92649919725034        2.07889491170462        0.81336301162391
H           -1.18543893093955       -3.16511951445278        0.83082754076839
H           -1.16042033806747       -3.14490747004844       -0.95737570225341
H           -2.57089647892823       -2.51792480815462       -0.07584674346909
H            1.34477311211900       -2.93280966206006       -0.01022250170843
25
 energy: 13.081449974680 xtb: 6.6.1 (8d0f1dd)
C            3.23040348907355        1.20646998015843        0.08512644071358
N            2.37304741419540        0.06149949847795        0.03061631227998
C            2.73583236628903       -1.33582322822954        0.03437759990411
N            1.45759047164686       -1.93898357467184        0.00440224368025
C            0.43259594945605       -1.04746167817027       -0.00859597442389
C            0.96196059265374        0.22941949637455        0.01152476545254
C            0.11020539751406        1.38887727095474       -0.00521368556038
O            0.44705345262584        2.57862547600293       -0.00286929683617
N           -1.28729649576882        1.06357234835412       -0.03134128784797
C           -2.26793149760897        2.15186672289607       -0.04798370911575
C           -1.82446835515759       -0.18248896514301       -0.04950347029946
O           -3.02436127644692       -0.38160451642799       -0.07455045115311
N           -0.92608670443045       -1.27138465799243       -0.03824470857239
C           -1.48764176197953       -2.60187722852297       -0.06176623348633
H            3.69864384834640        1.29821636019527        1.06950814505120
H            4.00253845757045        1.12737183475553       -0.67998627663395
H            2.63430409437986        2.10734040596553       -0.09240913484958
H            3.79921876279815       -2.00687948875356        0.05300857461987
H           -1.73557023034797        3.10006002729781       -0.02298380436732
H           -2.88582275178760        2.09542304096146       -0.94715290819669
H           -2.93578614800906        2.07568007190791        0.81304912683312
H           -1.19373364032204       -3.15689182960717        0.83106798186858
H           -1.16829653025131       -3.13662154511011       -0.95840263292925
H           -2.57437251606074       -2.50125932509146       -0.07642281546856
H            1.34018827955780       -2.93411789440995       -0.00822090451514
25
 energy: 15.481782599035 xtb: 6.6.1 (8d0f1dd)
C            3.22748448270699        1.20827409647983        0.08498830420395
N            2.37311510526960        0.06049671764747        0.02951926064408
C            2.73863364065143       -1.33894321584357        0.03477592026709
N            1.45985874913082       -1.93907797158733        0.00505307719645
C            0.43330676250232       -1.04904312872856       -0.00823750354192
C            0.96215666212032        0.22957509795311        0.01156604926006
C            0.11273426995307        1.39111145055755       -0.00519322512508
O            0.44379720659747        2.57927058362028       -0.00281389601817
N           -1.28719651247733        1.06604056495227       -0.03139708368231
C           -2.26881991574270        2.15276724391562       -0.04791077924694
C           -1.82377437020661       -0.18180282127241       -0.04959656102131
O           -3.02299196830692       -0.38142593003828       -0.07497823493421
N           -0.92476573137361       -1.27059015509512       -0.03804072504999
C           -1.48873633000597       -2.60080545437443       -0.06176318792039
H            3.69485872355246        1.30137308839509        1.06927609000511
H            4.00023606750933        1.13287468767215       -0.67927657032231
H            2.62958895916712        2.10707157324389       -0.09296189181441
H            3.81592550525113       -2.02587053332996        0.05252405032507
H           -1.73859356656731        3.10169307751534       -0.02290066236036
H           -2.88667489332512        2.09489243556011       -0.94708942119587
H           -2.93646848028378        2.07500677116358        0.81325199548686
H           -1.19619238440198       -3.15574622936124        0.83112213729783
H           -1.17062666906481       -3.13533664762941       -0.95853527240621
H           -2.57542538151517       -2.49833343562883       -0.07649604970409
H            1.34078473679548       -2.93444326361509       -0.00785192419563
25
 energy: 17.584361096152 xtb: 6.6.1 (8d0f1dd)
C            3.22594619020474        1.20885666569194        0.08495109866820
N            2.37081757257839        0.06144025081650        0.02834550099761
C            2.73599996016021       -1.33723511598214        0.03535826548720
N            1.46103394589985       -1.93818009779850        0.00543018502037
C            0.43189977861838       -1.05019436702168       -0.00806310668553
C            0.96082422537190        0.22977560884849        0.01161638211905
C            0.11435179607452        1.39388692960521       -0.00532250906770
O            0.44115136066896        2.58047890942547       -0.00274072902232
N           -1.28706504283567        1.06728999428603       -0.03146923024736
C           -2.26890157605071        2.15307143998087       -0.04790648660832
C           -1.82447999838920       -0.18177387020668       -0.04961136992749
O           -3.02302330639054       -0.38087979599282       -0.07510012183137
N           -0.92456382439751       -1.27048171884427       -0.03784084763636
C           -1.48957423285325       -2.60120806116172       -0.06169640057316
H            3.69260154741396        1.30065727123040        1.06935181069440
H            3.99886237137973        1.13308800654301       -0.67852146113820
H            2.62920333873892        2.10741695458452       -0.09343778066711
H            3.83291496812486       -2.03618192648109        0.05205657994603
H           -1.73947200067458        3.10216967468426       -0.02291665502015
H           -2.88661081809733        2.09502523532080       -0.94715370898533
H           -2.93630527268076        2.07513353874808        0.81342166199215
H           -1.19714086148548       -3.15567901153572        0.83114218107227
H           -1.17160510340231       -3.13512306209133       -0.95852880844525
H           -2.57622933914486       -2.49848053980101       -0.07642266195307
H            1.34157898910401       -2.93384431067663       -0.00790789204126
25
 energy: 18.757379187341 xtb: 6.6.1 (8d0f1dd)
C            3.22632574918187        1.20852374181012        0.08498809924398
N            2.36894604224233        0.06287859085277        0.02765466117315
C            2.73161605627625       -1.33371862136783        0.03594911741417
N            1.46059063847933       -1.93719473352858        0.00547265799810
C            0.43008544099905       -1.05002659335339       -0.00814000818958
C            0.95944918626364        0.23002549921842        0.01162745170399
C            0.11437560683240        1.39491583668228       -0.00542027835700
O            0.44041975559076        2.58146067741227       -0.00266021194862
N           -1.28752292169302        1.06679953457561       -0.03149947144413
C           -2.26888858364559        2.15284067305784       -0.04795366743748
C           -1.82588867101253       -0.18197724020732       -0.04957817078902
O           -3.02422519552160       -0.38060112061468       -0.07498696571350
N           -0.92545758334777       -1.27060059803776       -0.03777490490155
C           -1.48985990487359       -2.60193405812151       -0.06165665704887
H            3.69281131336703        1.29861909181829        1.06962502986973
H            3.99917088159918        1.13045664358754       -0.67835120622985
H            2.63129423327158        2.10818842362545       -0.09347788846265
H            3.84393395800207       -2.03812757230592        0.05181318172003
H           -1.73896072475000        3.10178803207235       -0.02296106360121
H           -2.88656319748744        2.09552074967045       -0.94724539809333
H           -2.93629022029892        2.07567371067797        0.81341196707984
H           -1.19672333428094       -3.15609129443818        0.83113404255834
H           -1.17127035430619       -3.13547493196866       -0.95848938944695
H           -2.57648577889228       -2.49997385550593       -0.07634408183129
H            1.34133227594063       -2.93294198343961       -0.00810294911899
25
 energy: 19.305205854962 xtb: 6.6.1 (8d0f1dd)
C            3.22699389733605        1.20817516782305        0.08502229446600
N            2.36848488038574        0.06355906771315        0.02745185034804
C            2.72881647210771       -1.33146071471166        0.03649263723570
N            1.45970913969032       -1.93687542271952        0.00538754892911
C            0.42919342823475       -1.04932018064762       -0.00830588253019
C            0.95879229805857        0.23028364164008        0.01157019317989
C            0.11363202052028        1.39458991461041       -0.00547890914102
O            0.44096723744489        2.58173156672076       -0.00265080102672
N           -1.28823871882506        1.06605887573418       -0.03150780951921
C           -2.26908293061386        2.15275572737220       -0.04797539533691
C           -1.82682443752744       -0.18193715159899       -0.04955840486637
O           -3.02525348956675       -0.38066165748218       -0.07485561366938
N           -0.92638042183102       -1.27067636480417       -0.03780771253532
C           -1.48983177426020       -2.60222622754572       -0.06166397322379
H            3.69356952157398        1.29755687703058        1.06978553059314
H            3.99972591677077        1.12868952169968       -0.67851266779045
H            2.63267629585790        2.10874269529621       -0.09331507655258
H            3.84963802811483       -2.03793483591135        0.05171707117721
H           -1.73839330286815        3.10147293575049       -0.02296311211908
H           -2.88675463081767        2.09597161049878       -0.94729282652504
H           -2.93653678863299        2.07613727821812        0.81338084440073
H           -1.19617185392932       -3.15637962169585        0.83111199624611
H           -1.17075279852341       -3.13576978176998       -0.95847512076235
H           -2.57645125960709       -2.50092684580144       -0.07633491459825
H            1.34068793884341       -2.93252747324718       -0.00818785023198
25
 energy: 19.472765993607 xtb: 6.6.1 (8d0f1dd)
C            3.22719038507300        1.20808157386500        0.08502873169639
N            2.36878460799744        0.06349749789735        0.02752225262894
C            2.72806783276220       -1.33093680124447        0.03687101911924
N            1.45921858638022       -1.93705580237711        0.00530394579846
C            0.42917686057865       -1.04886703998509       -0.00842835862206
C            0.95870193685964        0.23045003602694        0.01148190852030
C            0.11292827837949        1.39407916406180       -0.00550990285993
O            0.44163372996125        2.58156017482516       -0.00269991318747
N           -1.28865436397951        1.06585322888833       -0.03150502136278
C           -2.26929332685243        2.15290931409161       -0.04796483429425
C           -1.82699229138516       -0.18174528704621       -0.04955367125377
O           -3.02553800297756       -0.38080811993100       -0.07479647811308
N           -0.92675345322823       -1.27072199501690       -0.03785973011329
C           -1.48974196845135       -2.60216706964261       -0.06168763937044
H            3.69385663543283        1.29755594721904        1.06978476851517
H            3.99986542328467        1.12850764205846       -0.67865766865790
H            2.63275458095859        2.10881816673094       -0.09319736053536
H            3.85141221878423       -2.03798999225344        0.05164897753002
H           -1.73819322495557        3.10145260200018       -0.02294080619470
H           -2.88693985444773        2.09619388432566       -0.94729053658991
H           -2.93673992203086        2.07634850188035        0.81338584917311
H           -1.19599203960150       -3.15643359017615        0.83109225365058
H           -1.17056738223964       -3.13585182007612       -0.95848027351121
H           -2.57638379097747       -2.50109036741017       -0.07635916376339
H            1.34041321261101       -2.93261124653950       -0.00815445205539
25
 energy: 19.518016726526 xtb: 6.6.1 (8d0f1dd)
C            3.22709703268345        1.20810308615824        0.08501552044295
N            2.36924196775135        0.06317141174040        0.02769136727089
C            2.72810555480184       -1.33107894741595        0.03726600735401
N            1.45898361337087       -1.93740547387787        0.00521441383435
C            0.42946358317195       -1.04864635848608       -0.00854398037008
C            0.95876631498679        0.23056586759366        0.01135230678448
C            0.11227805319919        1.39372818814485       -0.00554376827572
O            0.44217832136782        2.58128953986665       -0.00276845330749
N           -1.28878743970579        1.06600492232610       -0.03149674881648
C           -2.26944830662022        2.15313823286686       -0.04793526012456
C           -1.82680503880477       -0.18152600654070       -0.04955771908030
O           -3.02543786881177       -0.38089213780903       -0.07477148048174
N           -0.92681282428092       -1.27078491222691       -0.03792172323829
C           -1.48968042337588       -2.60200488108279       -0.06171634558374
H            3.69383485062567        1.29790435809424        1.06970806376067
H            3.99975609567706        1.12897814121168       -0.67873866213463
H            2.63226586150548        2.10862999457112       -0.09314331045693
H            3.85180851107702       -2.03834170666451        0.05153167870479
H           -1.73820238633238        3.10157082494316       -0.02290851225826
H           -2.88706340440594        2.09627769030136       -0.94725696848432
H           -2.93685424393937        2.07641368881324        0.81341423329862
H           -1.19603096307096       -3.15638364399516        0.83107501010039
H           -1.17059621692313       -3.13583765345470       -0.95849509481687
H           -2.57635786712481       -2.50094438248510       -0.07638812642569
H            1.34051189111365       -2.93290124042078       -0.00804855154872
