72
 energy: 70.155501538216 xtb: 6.6.1 (8d0f1dd)
N           -1.75211360436716        2.83341782047198        2.36336048089261
C           -1.66383783343164        2.21071174625274        1.28308334666185
C           -2.74669375929154        2.16164434196071        0.24469976958478
C           -3.32072668360456        0.75339649157706        0.19614014733881
C           -4.28348468096002        0.40327309073524       -0.76026987152628
C           -4.81459473372990       -0.86949556867965       -0.83723978804747
O           -5.76503285306131       -1.24921203030903       -1.74112590250761
C           -6.33916728878552       -0.27178787011918       -2.56374857536609
C           -4.36469488389697       -1.93094003146858        0.06621649778550
O           -4.73248614263156       -3.11986211554633        0.02592494566022
C           -4.55174414175850       -5.23233654004020        2.88204633574760
C           -3.40397840094565       -1.49409974405101        1.03674783163177
C           -2.91139012672825       -0.22008658079632        1.10541594689972
C           -2.06263631191717        2.50887950475836       -1.10375237036571
C           -1.21164683913479        1.37572767566881       -1.70670878138357
C            0.08756600583706        1.16693314957406       -1.03427332515768
N            0.61116663956815       -0.01564370341307       -0.71588255857414
C            1.97589102842578       -0.10436496054844       -0.24612023219413
C            2.94689438915194       -0.56668248693957       -1.34957433483527
C            4.37105197180488       -0.45886382044254       -0.86875831854119
C            5.08889918684444        0.70606972546117       -1.05626757904424
C            6.39533121405678        0.81946605446104       -0.59921481552854
C            7.00333531989666       -0.23400872387550        0.05803024131154
O            8.27105158016002       -0.23750785831794        0.54429518173049
C            9.07308485236542        0.90308613544292        0.35851455465279
C            6.27552398715764       -1.43177001887222        0.25904291806219
O            6.95293982900845       -2.41138039563957        0.91116973306580
C            6.32132334994856       -3.64694428170881        1.13666824775942
C            4.97613526822365       -1.52576621798851       -0.20472081723639
C           -0.07908348618532       -1.25686304756404       -0.97800158128505
C           -3.89422419584825        3.17614183278211        0.52363063447909
C           -4.66983898299228        2.80787617984146        1.78745924138434
C           -3.41412268725279        4.62244194767740        0.62033411374759
H           -4.61790296650393        1.16900783317960       -1.44975026633671
H           -6.80733112007998        0.53786984819298       -1.99072968597773
H           -7.10843866396812       -0.78468935121561       -3.13814382037142
H           -5.61471734023378        0.16602450857875       -3.26220408477963
H           -4.82335820405422       -4.49992535024002        3.60672778134433
H           -5.29856552773063       -5.78336140532671        2.36314254089663
H           -3.53421247799523       -5.48163568165004        2.75926634631003
H           -3.07942626378022       -2.25123900341096        1.73663679559347
H           -2.21115338632789        0.02722961671917        1.89026702829750
H           -2.83656714351458        2.76719366685227       -1.82604784885185
H           -1.43518098648637        3.39201115607277       -0.96122945330221
H           -1.80063149541050        0.46187021222725       -1.73974009483695
H           -0.98600045002582        1.66755246482262       -2.73977404807857
H           -0.75594251012979        1.65700173769438        0.97862872290257
H            0.70671097388916        2.03332811856172       -0.86264225059504
H            2.01540306667215       -0.80591774488800        0.59099216870349
H            2.29964364007802        0.87473475178867        0.11531883997013
H            2.81049945520676        0.06850595977581       -2.22727685807260
H            2.72511496193609       -1.59637745399091       -1.63290471810257
H            4.64173823865390        1.54182348804119       -1.57391113903871
H            6.93025812851655        1.74027667480605       -0.76728214576153
H            8.65205489765740        1.78005914004752        0.86098654005277
H            9.21862034861153        1.12572519310337       -0.70355113551559
H           10.03349630459374        0.65823065741660        0.80911606750125
H            7.05881360267347       -4.25907238548401        1.65346386221821
H            5.43547499466546       -3.53923771513820        1.77137161846003
H            6.04229527213609       -4.13571582782546        0.19741961407703
H            4.41791721407804       -2.43850290735704       -0.06423223427071
H           -0.17162884508066       -1.43341153605386       -2.05158555219788
H           -1.07645243377032       -1.24990105513788       -0.53035597811868
H            0.48517701051577       -2.07633473495488       -0.54161573873221
H           -4.58374843344222        3.11224454163975       -0.32636128888604
H           -4.03093676242505        2.90457371216797        2.65932066182324
H           -5.03823029369909        1.78699507555891        1.73139592404468
H           -5.52158288764968        3.47431274544842        1.90292605285073
H           -2.70477598496826        4.73395830596634        1.43501832979354
H           -2.95829130454938        4.96577696205227       -0.30505932861296
H           -4.26511429277424        5.26527724821731        0.82905318288146
H           -0.94773572805154        2.80914088139396        2.98563611527085
