72
 energy: 6.981081551622 xtb: 6.6.1 (8d0f1dd)
N           -1.55750233970033        2.80156999294814        2.26601330013752
C           -1.58028195494724        2.15492558290848        1.18853190795865
C           -2.75288234906057        2.07954978363585        0.24419340575838
C           -3.32758994325515        0.66129551112735        0.28350517297063
C           -4.29673224314348        0.22602568149584       -0.62927712949841
C           -4.83421147419874       -1.07343661588106       -0.59778324475266
O           -5.81686767576351       -1.45590063335967       -1.46518176360758
C           -6.37998939989742       -0.52582178645427       -2.36146411989956
C           -4.38134116205435       -2.03663403206696        0.39038751089573
O           -4.84583074335178       -3.36807454267771        0.57225421432153
C           -4.61862691858272       -4.27992065525039        1.71814351782780
C           -3.41530866565014       -1.55001955443223        1.25320919068669
C           -2.90226029435897       -0.25940986529165        1.22400224097096
C           -2.16498000909799        2.35529065398900       -1.16625606367981
C           -1.24936803040728        1.23222393861000       -1.68631163198726
C            0.02263993224183        1.15822957447234       -0.92004597449884
N            0.63797268589025       -0.04487440377182       -0.61009003521492
C            2.00005900203733       -0.05583118181559       -0.18130356733545
C            2.94619911660930       -0.54826019606639       -1.29906934409959
C            4.36660977116114       -0.44056917931268       -0.84861529592946
C            5.08303456351805        0.72450962972504       -1.04668695618705
C            6.39160700644386        0.83628012380252       -0.60047210547969
C            7.00054286007508       -0.21684842413164        0.05815953906969
O            8.27929050030123       -0.21927242845908        0.53279515605261
C            9.07145371275477        0.92156508029753        0.33008436381337
C            6.27464447638672       -1.40990739495106        0.27328360454232
O            6.95623687248625       -2.39212794290113        0.92795902435315
C            6.31853634256597       -3.62331316564984        1.14837651395713
C            4.97127510409077       -1.50188142717323       -0.17505124115096
C           -0.05429889700089       -1.29645472266977       -0.71830385511270
C           -3.87974786029958        3.10036811909239        0.56614485279756
C           -4.54661831230198        2.78400037145728        1.90296073033894
C           -3.39969498490767        4.55126881640682        0.56798065019614
H           -4.64212244675551        0.95849370797275       -1.35807785872466
H           -6.83655472638087        0.32894868800083       -1.84858380304319
H           -7.15889968473645       -1.07943857389798       -2.88582954864110
H           -5.65286393998515       -0.15809156568450       -3.09427999522150
H           -4.87290339052810       -3.89322412568931        2.70537904190886
H           -5.27699020825886       -5.13307520767134        1.51966644238080
H           -3.59615733390505       -4.65906534687419        1.72667652400848
H           -3.05823812808150       -2.23187470615976        2.00772910405964
H           -2.16931577354630        0.01920590681320        1.96634032967809
H           -2.98438910927232        2.49151291819460       -1.87412683408779
H           -1.59377248277577        3.28577077132742       -1.13786453331075
H           -1.79246207070590        0.28945268992235       -1.65357533792601
H           -1.02632892225972        1.45203980723837       -2.74227915803119
H           -0.70381618486937        1.64557084054407        0.72956063377367
H            0.67804211116547        2.01063014696610       -0.95078594799429
H            2.10623928045284       -0.71235636708942        0.69074305259356
H            2.29680605447364        0.95459658551584        0.10970705550644
H            2.78022010999954        0.06813731299132       -2.18502518385313
H            2.69461699208958       -1.58102088607214       -1.54639000810913
H            4.62792063573896        1.55490098807107       -1.56528443249939
H            6.92780150707060        1.75428252176943       -0.78146951648287
H            8.65113025113975        1.80211513074984        0.82825583355524
H            9.20609594657336        1.13741694604909       -0.73523172460423
H           10.03734723853817        0.68477970484329        0.77436571673641
H            7.05607653000459       -4.24406249164562        1.65462451582309
H            5.43728593907569       -3.51512219429360        1.79069243814966
H            6.02649166137901       -4.10461887618475        0.20838600046919
H            4.40620650098585       -2.40889602476649       -0.02303012164731
H           -0.21136257885553       -1.58359053958209       -1.76411749870297
H           -1.02876090044568       -1.24517813714320       -0.22355518133408
H            0.53832879106109       -2.06995676655526       -0.23318155746995
H           -4.63622706109884        2.99840354548936       -0.22125434910172
H           -3.83075729529334        2.90376880686092        2.70787394757187
H           -4.92089857660559        1.76331397800445        1.91487852645834
H           -5.38066398670183        3.46234708952160        2.06972456933599
H           -2.62698974841458        4.69358516449429        1.31785739570137
H           -3.01671551427346        4.85437881991147       -0.40310172250374
H           -4.23499058169120        5.20280006904261        0.81390377293925
H           -0.69060193735977        2.77490225585489        2.79594049892643
