72
 energy: 38.021976621943 xtb: 6.6.1 (8d0f1dd)
N           -1.61523719198138        2.82422356241501        2.29215211117166
C           -1.60572759177214        2.16710129895727        1.22023432245700
C           -2.75663672021101        2.09878561888082        0.24364673622624
C           -3.33218834770616        0.67589618609731        0.25054243077981
C           -4.28915693188734        0.23263718705391       -0.67451915748433
C           -4.82977260335038       -1.07675884443157       -0.65686921482429
O           -5.81013225734701       -1.41797232562960       -1.54514163767466
C           -6.36784662137245       -0.45750146009420       -2.41579256451349
C           -4.37005081749813       -2.07116894975550        0.33841050011348
O           -4.69996458619452       -3.46699991406260        0.63308751680943
C           -4.57874237423106       -4.44311346324940        1.96505795848957
C           -3.40657804953002       -1.55084080030345        1.18547279649070
C           -2.90747599949530       -0.25612587828075        1.18022175360789
C           -2.14013369556520        2.39918843073897       -1.15060059157382
C           -1.23798310381702        1.27742016199337       -1.70271866101168
C            0.04838021671640        1.17175938437605       -0.97043713262307
N            0.63414821835183       -0.03901758352892       -0.64820711348679
C            1.99387349597511       -0.07363161134564       -0.20257953122751
C            2.95321060034224       -0.55533925149004       -1.31643865227375
C            4.37116194267421       -0.44759087021424       -0.85746050267380
C            5.08848901197635        0.71804394237440       -1.05033617174891
C            6.39545680998428        0.83024486761122       -0.59887292771214
C            7.00364053442379       -0.22410891713454        0.05941350954351
O            8.28180345391204       -0.22643435825391        0.53824098705119
C            9.07283451197195        0.91576396519506        0.33875112015895
C            6.27747387373041       -1.41812212693296        0.26940644393868
O            6.95819367724316       -2.40050637619171        0.92555311698548
C            6.31988929570039       -3.63105505451634        1.14611278317448
C            4.97541987505863       -1.50967724944925       -0.18391761000464
C           -0.05940605683404       -1.28753159421713       -0.79599730907429
C           -3.88703107853018        3.12068654839970        0.55256187582396
C           -4.58726084308095        2.79256190074834        1.86949879031465
C           -3.40370925189161        4.57070686004895        0.58218875242040
H           -4.63141627300439        0.97634566565536       -1.40112512941463
H           -6.82769122511380        0.38488384510817       -1.88430635651622
H           -7.14670925449566       -0.99530129791757       -2.95709015864210
H           -5.64354048437172       -0.06718039288160       -3.14012255602284
H           -4.85197535103045       -4.03815891124601        2.93611607861515
H           -5.26670596136153       -5.26728845566924        1.75235085391843
H           -3.58254783393458       -4.86936207446138        2.01350174172798
H           -3.04523384259123       -2.24302215015753        1.92991325104159
H           -2.18462167944807        0.01626756102961        1.93428099953054
H           -2.94895423173442        2.57496187374911       -1.86330067743882
H           -1.54971882701151        3.31636369482777       -1.08754220294729
H           -1.78572064615835        0.33771546591470       -1.68139451424122
H           -1.03490742387732        1.52133279159919       -2.75880105684578
H           -0.72122728976005        1.64415585207027        0.80713479318999
H            0.70570775417124        2.02259647765058       -0.94508973473638
H            2.08840064730112       -0.74846769889947        0.65747701985233
H            2.29516411255924        0.92865559138410        0.10985687485508
H            2.79121646056721        0.06752998706026       -2.19859867060939
H            2.70579930522607       -1.58683378946763       -1.57339560471513
H            4.63351687455639        1.54863305007054       -1.56875399310599
H            6.93031514745433        1.75018613375427       -0.77533417119122
H            8.65098744441654        1.79537143122749        0.83749472741909
H            9.20980267333651        1.13417454582873       -0.72580219265799
H           10.03802861769946        0.67927148800703        0.78517254372428
H            7.05593527826156       -4.25030254298122        1.65610044220267
H            5.43634015535113       -3.52161152611039        1.78515551437276
H            6.03112955548828       -4.11435437045158        0.20622974916579
H            4.41029442593444       -2.41740946102544       -0.03578034307866
H           -0.20162448349182       -1.54944908439851       -1.85049972108118
H           -1.04086485813844       -1.24767405588568       -0.31440436301098
H            0.52058383817217       -2.07804627968476       -0.32143623147611
H           -4.62597134149196        3.03223410299206       -0.25303512933438
H           -3.89138343879995        2.90649830767741        2.69202220306066
H           -4.95949676744370        1.77111460506916        1.86346533976723
H           -5.42610424706648        3.46838626530985        2.02259907735552
H           -2.64829614377497        4.70275562472370        1.35146128712637
H           -2.99892398015395        4.88557418568715       -0.37623503887338
H           -4.24306306433709        5.22068528380433        0.81816805497987
H           -0.77092804798652        2.78383777419801        2.85389732587845
