72
 energy: 69.420575836370 xtb: 6.6.1 (8d0f1dd)
N           -1.72133383411114        2.83537458833650        2.35949814632492
C           -1.64840955013665        2.21247836756036        1.27659734702628
C           -2.74001247773981        2.16903201636729        0.24697294489239
C           -3.32265061623057        0.76484806593759        0.19242971897672
C           -4.28393880299770        0.43532543697366       -0.77323657942625
C           -4.81505568010709       -0.83200896497284       -0.86366343796912
O           -5.77188172446475       -1.21834172357452       -1.75488129462745
C           -6.36187915744853       -0.25797735139569       -2.58128938937122
C           -4.36796753775209       -1.90743678476154        0.01820130945240
O           -4.76356788816116       -3.08218260500582       -0.07877254288964
C           -4.52814184206729       -5.38417041561835        2.99964464346934
C           -3.41765691113131       -1.50077989207563        1.00808700035805
C           -2.92671201646132       -0.22370397253020        1.09276956164734
C           -2.06649548251416        2.50221433325917       -1.11218051294628
C           -1.21620057402763        1.36184781216418       -1.70398139709970
C            0.07745185590163        1.16403105999587       -1.01419004311731
N            0.61829294822333       -0.01717388877222       -0.70678072233021
C            1.98066780089119       -0.09684662565315       -0.23859964417110
C            2.94917233392122       -0.56418886456446       -1.34393188698408
C            4.37160315825378       -0.45711724093474       -0.86773245406848
C            5.08848143449064        0.70876072519164       -1.05497506670268
C            6.39497612369831        0.82222642333072       -0.59855061033281
C            7.00273029377288       -0.23184053419147        0.05890783025283
O            8.27263613144642       -0.23593078442900        0.54308651340191
C            9.07242876533106        0.90488539483327        0.35479436513394
C            6.27512884623857       -1.42912143531187        0.26176714562528
O            6.95344312665077       -2.40977513201998        0.91356628416350
C            6.32060335139901       -3.64453171145439        1.13774961445083
C            4.97503620282893       -1.52279488055534       -0.20057239400965
C           -0.07404416890986       -1.26150255168832       -0.94295202870405
C           -3.88748432007759        3.17879323454556        0.53293418435650
C           -4.64901730946645        2.80810964732708        1.80494265285876
C           -3.41216202855803        4.62714234143104        0.62176974815366
H           -4.61641611682308        1.20528193219324       -1.45656327986066
H           -6.83064264132730        0.54745449815060       -2.00322455642379
H           -7.12993151412851       -0.78589476774073       -3.14517837768243
H           -5.63894385934759        0.17613022059882       -3.28295612049058
H           -4.80854649464603       -4.62667641033599        3.69866246213537
H           -5.26700210378646       -5.90643408345926        2.43595869524104
H           -3.49684639092873       -5.61560412252368        2.85780674047497
H           -3.11181483935412       -2.26260220256411        1.71021812400508
H           -2.22966902434117        0.02153414425160        1.88280993056358
H           -2.84859326721311        2.74026151132832       -1.83318745060981
H           -1.44478428714916        3.39120149980365       -0.99297112118525
H           -1.80338251609254        0.44492227321662       -1.72020309016829
H           -0.99989430758627        1.63560316521762       -2.74612370198345
H           -0.74653238702647        1.65986629049042        0.94655387919998
H            0.70089286470897        2.03128491950522       -0.85776403848485
H            2.02924764738822       -0.79066580520261        0.60553793299040
H            2.29770001003034        0.88740522011472        0.11264493084593
H            2.80791107584853        0.06860579042982       -2.22224014928593
H            2.72127829908250       -1.59401260253534       -1.62127677408592
H            4.63948183032903        1.54357184899627       -1.57252456309316
H            6.93007579379458        1.74265802783358       -0.76909723763892
H            8.65193356500381        1.78298951975182        0.85630481251032
H            9.21688171708791        1.12773007103399       -0.70765696840871
H           10.03395566583693        0.66177449914346        0.80408196481630
H            7.05825077569172       -4.25808976301662        1.65249635633880
H            5.43509548868827       -3.53817160641534        1.77334042637874
H            6.03903665018576       -4.13239730980806        0.19865344225544
H            4.41513491718777       -2.43428480068299       -0.05847063728573
H           -0.18365892301189       -1.45590689730297       -2.01262391711131
H           -1.06659780480260       -1.24452083320380       -0.48543183340106
H            0.49497513149900       -2.07393317782870       -0.49830788137234
H           -4.58490505488371        3.10604340671634       -0.30956864300519
H           -3.99952414483851        2.90509660668142        2.66839954356931
H           -5.01486892240787        1.78574732825709        1.75383356535970
H           -5.50039120004524        3.47348643322806        1.92925594611452
H           -2.69128495004312        4.73737169046219        1.42551159145979
H           -2.96273811504262        4.96416839149580       -0.30946285120762
H           -4.26308760992565        5.27006690850290        0.83420741879895
H           -0.90556737725659        2.79924845878051        2.96566367633570
