72
 energy: -4.000336965467 xtb: 6.6.1 (8d0f1dd)
N           -1.51608631879379        2.78350508429895        2.24863817935791
C           -1.56093066275769        2.15303313581485        1.16319772220631
C           -2.74830580644398        2.06809302462857        0.24456614080413
C           -3.32010006702832        0.65461784756346        0.31000725788190
C           -4.30139350268080        0.24067244842372       -0.59537670027241
C           -4.84029534021491       -1.04188072247133       -0.55764151370031
O           -5.81689833101350       -1.47590786997288       -1.40513537814475
C           -6.38965600710967       -0.57613763243309       -2.32198239702030
C           -4.38789770294035       -1.97958664173165        0.41956127951705
O           -4.93261185062897       -3.24901243161285        0.47054711332283
C           -4.64658665275950       -4.17023456814554        1.52902093882998
C           -3.41757578024549       -1.54488095390316        1.30289956581602
C           -2.89264443078568       -0.25885171003433        1.25642772163587
C           -2.18297081743029        2.32234271838871       -1.17821313791817
C           -1.25767767135098        1.19854848486326       -1.67535506958058
C            0.01013238650335        1.13898932313275       -0.90174588657380
N            0.63543247609535       -0.04698775338242       -0.57549886490400
C            2.00179282221768       -0.04135676021635       -0.16592736273425
C            2.93910213708043       -0.54317172718928       -1.28607743682523
C            4.36186469852405       -0.43594585630105       -0.84133668322294
C            5.07839596360972        0.72859482113200       -1.04348260992147
C            6.38833791939027        0.83991389576521       -0.60175075378940
C            6.99823126186314       -0.21215834905455        0.05740743700602
O            8.27698201111848       -0.21461587664065        0.52900238068988
C            9.06980615054852        0.92562509653168        0.32347381246376
C            6.27172246796659       -1.40438470554288        0.27695697213070
O            6.95404075554333       -2.38698340667701        0.92933479982785
C            6.31680564680742       -3.61830792605513        1.15051936085786
C            4.96735818907722       -1.49676368337436       -0.16743635395913
C           -0.05216107842874       -1.30179672424464       -0.65855626288435
C           -3.87320598912662        3.08664244982612        0.57641124928647
C           -4.51609203934197        2.77921182625230        1.92710678247113
C           -3.39616323042926        4.53800074195726        0.55634476341933
H           -4.65384971565844        0.95407882040641       -1.32842942640082
H           -6.84506576355186        0.28645457693664       -1.82307297549754
H           -7.16811658319669       -1.14367747673399       -2.83052618904610
H           -5.66381675398742       -0.22405233854740       -3.06331390446292
H           -4.88038076104244       -3.78722486427483        2.52500787637456
H           -5.28454803333392       -5.03382650510656        1.33223367342365
H           -3.60543235976558       -4.50392330827777        1.50438399873122
H           -3.06367537216192       -2.22277433971258        2.06305265580287
H           -2.15504178967436        0.02345404707433        1.99241110488062
H           -3.00915389405081        2.42725888779286       -1.88254142973750
H           -1.62727009974442        3.26197383990115       -1.17786149101747
H           -1.79870237581456        0.25422258032648       -1.63544271875521
H           -1.01652547857147        1.40476472298669       -2.72794878657784
H           -0.69108060717350        1.64972702907085        0.67543037167135
H            0.65629379531898        1.99859917734112       -0.94591278365091
H            2.11572275314323       -0.68299701291598        0.71508062247185
H            2.29857854608343        0.97394685115188        0.10936072546962
H            2.77172727802451        0.06807365089568       -2.17510895650932
H            2.68576598092677       -1.57710750078487       -1.52548411748844
H            4.62389398909352        1.55900196216826       -1.56295278430326
H            6.92576240063112        1.75611195331654       -0.78714512867416
H            8.65060166055403        1.80683110261206        0.82128333158067
H            9.20286438428147        1.13981974129904       -0.74239779484348
H           10.03624874498324        0.68900199972547        0.76613217400160
H            7.05537074420767       -4.24013875919993        1.65408243287625
H            5.43749424083820       -3.51052757805651        1.79531381015700
H            6.02217346332828       -4.09823228057532        0.21067999243776
H            4.40305911215449       -2.40369234020943       -0.01230458651504
H           -0.21673495158424       -1.60741042471907       -1.69768698507873
H           -1.02228370713281       -1.24326182553033       -0.15599908663769
H            0.55007524410102       -2.06116607093226       -0.16488585207284
H           -4.64111399145425        2.97355669697260       -0.19805579447422
H           -3.78731670215906        2.90289985205181        2.72058663478045
H           -4.89357383304238        1.75993514922979        1.95257170384327
H           -5.34589980244232        3.46012059475526        2.10265826136602
H           -2.61072800453530        4.68960250576190        1.29087920313740
H           -3.03017712183431        4.83162224749131       -0.42422866041045
H           -4.22849735699483        5.19049891886644        0.80939008505309
H           -0.63252783876083        2.77165134013858        2.75416047448480
