72
 energy: 19.965525209203 xtb: 6.6.1 (8d0f1dd)
N           -1.58581368270321        2.81392445567679        2.27840129869684
C           -1.59285437479275        2.15955531379646        1.20497780960247
C           -2.75512868087781        2.08794045981571        0.24418752181882
C           -3.33089893446768        0.66630021762716        0.26665489967778
C           -4.29291012055575        0.22058011745208       -0.65160566911409
C           -4.83263925810111       -1.08697645641468       -0.62493040414282
O           -5.81457086811870       -1.44032213683292       -1.50561848618206
C           -6.37358959395696       -0.49241413057137       -2.38858090760406
C           -4.38061269743329       -2.06726904134442        0.37367038502267
O           -4.78267034390750       -3.44363082958769        0.63935585791632
C           -4.59766212244049       -4.35960861409378        1.84521053047226
C           -3.41260581211425       -1.55340110309964        1.22084125811836
C           -2.90571700142977       -0.25974889859609        1.20214544257617
C           -2.15294811208945        2.37699889344432       -1.15832343397536
C           -1.24361713006767        1.25521672032695       -1.69487204036095
C            0.03500541937305        1.16781358620821       -0.94388313759873
N            0.63648125018546       -0.04132864858059       -0.63079282724070
C            1.99707882992829       -0.06464762038440       -0.19202507363963
C            2.94997806357719       -0.55169604266345       -1.30765395503310
C            4.36915852648876       -0.44403108057297       -0.85311353732640
C            5.08600133427522        0.72127586645705       -1.04866543158143
C            6.39376998708062        0.83328084866174       -0.59971249683858
C            7.00230015952962       -0.22048214010624        0.05875655840550
O            8.28092509331419       -0.22277201739706        0.53531987412800
C            9.07228434815504        0.91880789107545        0.33434135874560
C            6.27635904623333       -1.41404494097192        0.27129323706852
O            6.95746966897895       -2.39625632946445        0.92692260332285
C            6.31933335178203       -3.62716992848105        1.14707582650455
C            4.97359649848098       -1.50571480961857       -0.17960256633740
C           -0.05691836958876       -1.29169266938595       -0.75743223848445
C           -3.88344856003280        3.11003535620625        0.55945651078474
C           -4.56723334894474        2.78796098696282        1.88636492679887
C           -3.40161762180985        4.56061896304968        0.57505611083351
H           -4.63644175214334        0.95951044247319       -1.38009796428540
H           -6.83133579285125        0.35633815055000       -1.86620775468271
H           -7.15314751443961       -1.03719459162763       -2.92170210861152
H           -5.64840129766910       -0.11319973616402       -3.11770231196805
H           -4.86359773164673       -3.96701313757475        2.82497879282180
H           -5.27074904862092       -5.20077062895129        1.64042198419317
H           -3.58832993251334       -4.76392034860716        1.87290266239250
H           -3.05040084907223       -2.23763656556334        1.97108392213191
H           -2.17847318597261        0.01797972524085        1.95094210878618
H           -2.96730445622681        2.53327634761131       -1.86861423163356
H           -1.57185976037738        3.30098759738304       -1.11252884445065
H           -1.78817018697808        0.31351664652588       -1.66719579058374
H           -1.03169023259463        1.48643376527281       -2.75153088411684
H           -0.71233883170984        1.64398622632899        0.76841543568298
H            0.69290881650331        2.01805283776142       -0.94998496659939
H            2.09787447525471       -0.73063768452033        0.67411005140158
H            2.29564403151637        0.94184468918553        0.10972069281338
H            2.78585070388414        0.06788795410726       -2.19178876977648
H            2.70026839025186       -1.58381888408643       -1.55987534944959
H            4.63082391986280        1.55176794211128       -1.56698216341927
H            6.92925314254480        1.75231060450082       -0.77838407488766
H            8.65100563336459        1.79876377439516        0.83284726922569
H            9.20799825539462        1.13597432720676       -0.73058527272128
H           10.03785414807466        0.68225657505089        0.77972693236203
H            7.05604439223759       -4.24730773680432        1.65512575237896
H            5.43687573626986       -3.51837363921222        1.78770604290387
H            6.02891482260412       -4.10933566204338        0.20704548875010
H            4.40834356928243       -2.41299583081344       -0.02945583852619
H           -0.20690216240116       -1.56692129376933       -1.80751443241716
H           -1.03485726802820       -1.24611552345049       -0.26907634370152
H            0.52920271809129       -2.07395342446408       -0.27730338538196
H           -4.63123611168350        3.01501634759397       -0.23713539372287
H           -3.86133136686651        2.90491745590752        2.70004460400331
H           -4.94024559529925        1.76677518190956        1.88919685425718
H           -5.40383006019161        3.46491965999983        2.04629644196296
H           -2.63762131932564        4.69782285052456        1.33483575756954
H           -3.00754160776281        4.86953750076912       -0.38972529892976
H           -4.23889465262284        5.21159192495433        0.81578129091152
H           -0.73052286062328        2.77897702603248        2.82454952337546
