72
 energy: 12.855038640154 xtb: 6.6.1 (8d0f1dd)
N           -1.57164959945063        2.80790922756370        2.27192733382672
C           -1.58664483012437        2.15664113747534        1.19686244496431
C           -2.75412954537206        2.08341955863686        0.24413772567007
C           -3.32943623770634        0.66327231998287        0.27476541520103
C           -4.29455096785494        0.22121957542980       -0.64079944802440
C           -4.83332785466005       -1.08253552818017       -0.61106331716424
O           -5.81601077036214       -1.44887462949925       -1.48563186814252
C           -6.37668353391489       -0.50921004007482       -2.37499270245898
C           -4.38212138444758       -2.05419308752591        0.38342984885161
O           -4.81698249417474       -3.40669239459220        0.60862878442656
C           -4.60819033604726       -4.31936780339357        1.78220642850283
C           -3.41443673607370       -1.55212684801847        1.23718216928984
C           -2.90428341866660       -0.25995891699738        1.21295522437577
C           -2.15900446442288        2.36615357070586       -1.16228126668897
C           -1.24647216728692        1.24382701582589       -1.69055627788645
C            0.02844803836525        1.16387782779130       -0.93107317000159
N            0.63743249484438       -0.04302439187216       -0.62099065654772
C            1.99861133214251       -0.06021762095137       -0.18662676996527
C            2.94811326833272       -0.54990446956254       -1.30332830016822
C            4.36790782556063       -0.44223252283054       -0.85091610730384
C            5.08452559997003        0.72295133243429       -1.04773626336649
C            6.39269226481481        0.83482700892082       -0.60013429149396
C            7.00137184539350       -0.21864134345012        0.05840277360836
O            8.28008300636309       -0.22099668298980        0.53397710532679
C            9.07185749202500        0.92020007148399        0.33219123888762
C            6.27550574254098       -1.41196006682163        0.27221325514063
O            6.95682039824546       -2.39414526010191        0.92745982329149
C            6.31886884794195       -3.62520010861557        1.14766607004131
C            4.97243872185540       -1.50374273505146       -0.17742257825747
C           -0.05554979208239       -1.29407877640276       -0.73786016492493
C           -3.88160618006488        3.10510467494465        0.56279844064889
C           -4.55695995399032        2.78595046945258        1.89470107096164
C           -3.40069861475641        4.55590641749581        0.57152116577442
H           -4.63895966646541        0.95687948051342       -1.36976282556866
H           -6.83369419621562        0.34257580169064       -1.85720138944435
H           -7.15605351419138       -1.05811623569955       -2.90392497044094
H           -5.65049465919585       -0.13564717111501       -3.10592961059666
H           -4.86850407340932       -3.92992311955667        2.76566705502234
H           -5.27403873162853       -5.16653117064140        1.58040687269931
H           -3.59216103422535       -4.71143233236924        1.80006273074518
H           -3.05442196183373       -2.23493698592294        1.98957692073040
H           -2.17412081922387        0.01840803255543        1.95850961914889
H           -2.97588565550583        2.51252981259327       -1.87139358865980
H           -1.58273771755357        3.29337826813384       -1.12505841177889
H           -1.79013247646341        0.30149141920075       -1.66020481893634
H           -1.02910072900465        1.46902986448708       -2.74702781202739
H           -0.70803605020363        1.64457506121598        0.74885128563074
H            0.68562384375770        2.01469168548514       -0.95048872704483
H            2.10226692409335       -0.72158200020040        0.68247344002349
H            2.29619825343959        0.94825953488390        0.10979575890447
H            2.78296619712513        0.06810694984156       -2.18836280274511
H            2.69743323055354       -1.58234017518417       -1.55315243688399
H            4.62935739469748        1.55340407161364       -1.56613532012950
H            6.92854713792876        1.75334160633175       -0.77993251785047
H            8.65103888154324        1.80042331227432        0.83056360537514
H            9.20702402097867        1.13674316546061       -0.73292154896577
H           10.03759782228940        0.68352253864095        0.77702066343539
H            7.05597806779048       -4.24567959528283        1.65479539782218
H            5.43701366126407       -3.51669435993784        1.78914376712517
H            6.02761664882890       -4.10691636014985        0.20764400375206
H            4.40722842166203       -2.41086016637397       -0.02632645687808
H           -0.20917488904147       -1.57541549671545       -1.78577603435703
H           -1.03173491791336       -1.24568771872052       -0.24624362671904
H            0.53378161571725       -2.07205568277422       -0.25520184184950
H           -4.63383277660250        3.00669088383631       -0.22916296462177
H           -3.84604761717894        2.90436529767701        2.70396888660074
H           -4.93053548799874        1.76498142950808        1.90208488360424
H           -5.39232578884127        3.46356776930276        2.05807459053309
H           -2.63235634433414        4.69570901460194        1.32638848551426
H           -3.01214946033307        4.86196396667960       -0.39641059002637
H           -4.23699653179266        5.20717206433871        0.81481757031332
H           -0.71064219298595        2.77679883966882        2.81012330835787
