72
 energy: 2.213122095004 xtb: 6.6.1 (8d0f1dd)
N           -1.54339775285584        2.79528288838525        2.26056428430112
C           -1.57373845759981        2.15441607391867        1.18012360580499
C           -2.75133444076225        2.07591005364964        0.24432493708167
C           -3.32519117301967        0.65947498662221        0.29251179421751
C           -4.29858387531113        0.23151475427381       -0.61769606391972
C           -4.83552542445885       -1.06290015730006       -0.58466541703275
O           -5.81702857380641       -1.46252041233121       -1.44506691030061
C           -6.38352490379173       -0.54256751948703       -2.34819703970396
C           -4.38241504089108       -2.01777985964476        0.39874418486125
O           -4.87464492951928       -3.32912869413968        0.53652665955223
C           -4.62816606664652       -4.24226729101550        1.65439663730138
C           -3.41577066677188       -1.54784046477941        1.26952574209079
C           -2.89913194570789       -0.25874445494523        1.23500040409421
C           -2.17097572104052        2.34421843776058       -1.17039722125855
C           -1.25215211780545        1.22063047620415       -1.68266382803982
C            0.01783478319872        1.15177905466114       -0.91185240456720
N            0.63778719421270       -0.04654770440983       -0.59832805860049
C            2.00111767446248       -0.05133001500946       -0.17602638080425
C            2.94403173725494       -0.54665003101644       -1.29477364997523
C            4.36513556456123       -0.43898991772678       -0.84620671593788
C            5.08145285061268        0.72598660041673       -1.04549959377898
C            6.39041474045172        0.83765689280824       -0.60061442795039
C            6.99962876316207       -0.21512934774998        0.05813964622808
O            8.27842486749012       -0.21761801817116        0.53171998686475
C            9.07094212398955        0.92289494097780        0.32793698318866
C            6.27363764351310       -1.40793512832355        0.27461324518214
O            6.95547104150940       -2.39025766134637        0.92861054163256
C            6.31797230052940       -3.62154542449178        1.14917820137206
C            4.96997947261684       -1.50010269597967       -0.17246145233747
C           -0.05358179943599       -1.29863096597796       -0.69858444709199
C           -3.87763319512621        3.09580389620074        0.56947964955361
C           -4.53619391054257        2.78216913957119        1.91105414734921
C           -3.39840699423818        4.54677186627633        0.56424231531425
H           -4.64632819274345        0.95887409529186       -1.34680437770437
H           -6.83967036563271        0.31489788693699       -1.84005664587541
H           -7.16233325639845       -1.10085004764199       -2.86731115679880
H           -5.65677663717901       -0.18014401555500       -3.08383042408382
H           -4.87593345174514       -3.85718363349295        2.64457372965232
H           -5.27910975218066       -5.10014574638421        1.45787103654139
H           -3.59944402592484       -4.60724662128101        1.65277875620499
H           -3.06029648456888       -2.22847008653969        2.02609631461451
H           -2.16434451177781        0.02094509491693        1.97497905352590
H           -2.99289034424188        2.47010997640456       -1.87698871876285
H           -1.60484405959981        3.27779971613448       -1.15133694259366
H           -1.79468163538648        0.27750527003506       -1.64760019379124
H           -1.02325748992966        1.43554170500960       -2.73786893176070
H           -0.69944925521574        1.64725623630684        0.71098440169507
H            0.67029311642566        2.00651076388350       -0.94994472816963
H            2.10980592636596       -0.70282502783779        0.69897822660048
H            2.29729309732925        0.96098209666802        0.10944602506445
H            2.77744203908693        0.06807849193925       -2.18172454565564
H            2.69175613525974       -1.57978010234476       -1.53951110300578
H            4.62644005353620        1.55637399845262       -1.56424142513621
H            6.92699096131904        1.75511329592538       -0.78290767615742
H            8.65112161819895        1.80374829910005        0.82594482683942
H            9.20498162705433        1.13806953580630       -0.73759060128336
H           10.03703265797075        0.68606603387208        0.77161146565209
H            7.05587005005802       -4.24266356440000        1.65451899617711
H            5.43733907235396       -3.51359001984646        1.79232049466017
H            6.02508206388879       -4.10234611708719        0.20919446320618
H            4.40512182637729       -2.40705691192122       -0.01946837904207
H           -0.21362758809504       -1.59154590714334       -1.74229500172999
H           -1.02647508857847       -1.24452733237635       -0.20100565432972
H            0.54223508297885       -2.06756598532048       -0.21086466808421
H           -4.63817771145195        2.99023151771452       -0.21347347528509
H           -3.81566453413238        2.90306971678309        2.71183653268330
H           -4.91143296002450        1.76188508005423        1.92732610995938
H           -5.36882997876349        3.46131893203326        2.08112401826653
H           -2.62128545170002        4.69181142182541        1.30898436648590
H           -3.02107229032233        4.84680395712312       -0.41000849830988
H           -4.23259542910985        5.19868803284162        0.81275422794571
H           -0.67086946100738        2.77320884211010        2.78228097792598
