72
 energy: -5.326692843551 xtb: 6.6.1 (8d0f1dd)
N           -1.50410744090243        2.77688347883691        2.24061894343582
C           -1.55523946949400        2.15229228517046        1.15253627996229
C           -2.74763390662885        2.06405775240920        0.24348702641482
C           -3.31764912560693        0.65149205531124        0.31712118427569
C           -4.30248016332371        0.24394925046455       -0.58610526204964
C           -4.84424126259001       -1.03177562352440       -0.54420846893070
O           -5.81818718592343       -1.48253301069512       -1.38446855206943
C           -6.39288587999679       -0.59261931341476       -2.30799504982737
C           -4.39254870124614       -1.96095425169911        0.43052563932889
O           -4.96278082281562       -3.20821186459502        0.44009550762250
C           -4.65536301210643       -4.13458909845878        1.46816464186196
C           -3.41997396289115       -1.54401243978020        1.31879684080196
C           -2.89011540390704       -0.25977838154318        1.26582001171054
C           -2.18935371586135        2.31249072721303       -1.18223238908947
C           -1.26110119602515        1.18800857611712       -1.67000245395660
C            0.00668359852922        1.13290836311811       -0.89777980698422
N            0.63445223605222       -0.04685419756191       -0.56857227148477
C            2.00161562202301       -0.03631224992269       -0.16227896741800
C            2.93664825571638       -0.54156569799237       -1.28241966452486
C            4.36006047648455       -0.43440533301924       -0.83897607783547
C            5.07675241085990        0.72997027021971       -1.04234627226493
C            6.38715110205103        0.84124981345086       -0.60208385131021
C            6.99720001680461       -0.21041157155957        0.05750363056846
O            8.27577571451710       -0.21287265862734        0.52858711718718
C            9.06922770079549        0.92675901425718        0.32172645203825
C            6.27049579728439       -1.40244418179990        0.27849294562805
O            6.95321566826723       -2.38485346951967        0.93023758607007
C            6.31660638380373       -3.61633283894490        1.15192153664974
C            4.96591228275035       -1.49509409742199       -0.16504333030406
C           -0.05178813004063       -1.30251532227475       -0.64014461603478
C           -3.87085584320496        3.08219328352102        0.58012713366928
C           -4.50477563870870        2.77696393950447        1.93570631025114
C           -3.39478257735010        4.53381700439677        0.55272984591915
H           -4.65574715788531        0.95011645556889       -1.32282821702526
H           -6.84723967889380        0.27269424219291       -1.81321098690700
H           -7.17094763560134       -1.16478209464409       -2.81150581067307
H           -5.66570418369890       -0.24677074705896       -3.05092836839873
H           -4.88142571091392       -3.75137794038768        2.46729876215504
H           -5.28756941333484       -5.00087861485171        1.27195843368573
H           -3.60798199199053       -4.45032711090948        1.42959665596068
H           -3.06733583446810       -2.22069003817955        2.08083180942404
H           -2.15029729110356        0.02266583827080        1.99933020073083
H           -3.01782658833036        2.40615824659034       -1.88495686427391
H           -1.63959299901159        3.25565070631275       -1.19027758363268
H           -1.80196432921900        0.24296550372994       -1.62883349264346
H           -1.01211471241422        1.39095157940214       -2.71987356658208
H           -0.68780943047194        1.65081553635650        0.65550536556592
H            0.65126862221259        1.99348401031015       -0.94427566451860
H            2.11707665768199       -0.67368745429715        0.72122389989823
H            2.30003902757074        0.97975140193450        0.10966244263256
H            2.76875719676384        0.06801899180257       -2.17234331422915
H            2.68238374567438       -1.57582589656550       -1.51906813125765
H            4.62251210542221        1.56039989155589       -1.56222098643228
H            6.92468282195101        1.75720129613855       -0.78803922249356
H            8.65112479472190        1.80875148215452        0.81906618453131
H            9.20205717728347        1.13981553312175       -0.74443142226265
H           10.03567309821810        0.68973097492027        0.76392638419713
H            7.05588398721749       -4.23797783936202        1.65466013342034
H            5.43789634006116       -3.50922121462060        1.79758469081055
H            6.02166836139784       -4.09600513782172        0.21212958588154
H            4.40192533308576       -2.40209378895163       -0.00920915853208
H           -0.21994175529001       -1.61486847468264       -1.67661237066821
H           -1.01960965110895       -1.24274231095205       -0.13317254083499
H            0.55505687646253       -2.05660301423606       -0.14459568968682
H           -4.64262909462890        2.96527430569546       -0.18969582900017
H           -3.77168698285470        2.90234763276670        2.72542081223473
H           -4.88329556754147        1.75813719100558        1.96596036870073
H           -5.33309239236332        3.45852967999199        2.11448365719123
H           -2.60505180507805        4.68876671945114        1.28188040907781
H           -3.03517584309462        4.82484416920632       -0.43110036951690
H           -4.22603887676872        5.18648546253832        0.80877924404082
H           -0.61466635213062        2.77053321357655        2.73632986132253
