72
 energy: 55.134885214697 xtb: 6.6.1 (8d0f1dd)
N           -1.62836397492412        2.82297496230004        2.29855645093608
C           -1.61412034573022        2.17595935949199        1.22607093748109
C           -2.75688618842211        2.10547087864164        0.24342084127287
C           -3.33113233601847        0.68321026132526        0.24199916539984
C           -4.28697635163917        0.25029418152865       -0.69071104322041
C           -4.82720407833753       -1.05060781632748       -0.67937066140644
O           -5.80887609753947       -1.40145134850023       -1.56982104803673
C           -6.36610974180391       -0.43958597146332       -2.43208396494609
C           -4.36673655129986       -2.06380653306273        0.29544359332663
O           -4.68340788861034       -3.36969738459964        0.51933276016747
C           -4.57308901142630       -4.56941153036826        2.11556451446393
C           -3.39977540977982       -1.54540498861426        1.16079335029342
C           -2.90749298315216       -0.25297648568390        1.16844449152969
C           -2.13118995755157        2.41143130739335       -1.14530156411414
C           -1.23597028408428        1.28697238464611       -1.70356568496583
C            0.06133461923054        1.16155728638277       -0.99309013554364
N            0.62958767271754       -0.03055162600177       -0.66372047348155
C            1.99335368057360       -0.07641806017125       -0.20761396713529
C            2.95139442983675       -0.55651811828029       -1.31987396959173
C            4.37233713034186       -0.44865975797406       -0.85773951840201
C            5.08916082280643        0.71606594641428       -1.05121162370608
C            6.39660695694674        0.82830845614797       -0.59862127331734
C            7.00495916374031       -0.22580120303622        0.05964803536368
O            8.28025267393433       -0.22815466971632        0.53910415356819
C            9.07312187799566        0.91433643313357        0.34092858906896
C            6.27839928309429       -1.42093536505443        0.26834781386247
O            6.95756788677716       -2.40179457648652        0.92394996961992
C            6.31993053037115       -3.63338189355840        1.14546059167467
C            4.97585583323868       -1.51155316272310       -0.18624127751767
C           -0.06251250127188       -1.28494229218919       -0.81547818656269
C           -3.88791657137136        3.12687771301718        0.54922137803348
C           -4.59673029334572        2.79443209629070        1.86053938889215
C           -3.40472053323348        4.57643775294016        0.58563196192857
H           -4.63279714974175        0.99548099850828       -1.41260359426333
H           -6.82594981517486        0.40052486503444       -1.89593897659745
H           -7.14456402509600       -0.97384924450019       -2.97688381785243
H           -5.64119873344928       -0.04387728634882       -3.15392226020896
H           -4.84878561092541       -4.09209309849499        3.03162287527675
H           -5.27533807094272       -5.33059638207131        1.82386874379948
H           -3.56973446456426       -4.93609663815143        2.09395881456158
H           -3.04654440914889       -2.24625103266466        1.90378920428921
H           -2.18848298405027        0.01699443722630        1.92868985401273
H           -2.93736390363058        2.59382421499149       -1.85905292708584
H           -1.53746460877111        3.32570672953402       -1.07501561982295
H           -1.78733295786731        0.34995817621178       -1.68683493398547
H           -1.03174303080204        1.53768769263363       -2.75701702811426
H           -0.72581169035924        1.64593343991127        0.82735640905757
H            0.70815113095647        2.02266035968899       -0.93451641346845
H            2.07992873081518       -0.75581811899984        0.64836511094082
H            2.29666101920549        0.92303108808650        0.11063929553096
H            2.79420758142303        0.06724677038018       -2.20242635191945
H            2.70830329909030       -1.58808045188481       -1.58013355913100
H            4.63509650569713        1.54729017595167       -1.56950342330762
H            6.93070212092847        1.74889029855015       -0.77380569454826
H            8.65111419165716        1.79347680233002        0.83998461690275
H            9.21081060048661        1.13302382901632       -0.72331403157713
H           10.03774540828093        0.67718077395760        0.78798006700332
H            7.05603480190582       -4.25160519689938        1.65625923463370
H            5.43622706466714       -3.52355357233758        1.78387666587011
H            6.03247900693693       -4.11693207732520        0.20559230689018
H            4.41132321647517       -2.41966990298336       -0.03882301213984
H           -0.19896638664960       -1.53874281100521       -1.87096386128350
H           -1.04460979521073       -1.24780418877295       -0.33667513588528
H            0.51620917234769       -2.07767708285311       -0.34389731827434
H           -4.62177619576624        3.03985205762075       -0.26071015477623
H           -3.90741327304960        2.90688410942033        2.68864089325233
H           -4.96775229633588        1.77294132062904        1.84933089643746
H           -5.43713675687027        3.46917923139541        2.00952963223091
H           -2.65416678551554        4.70672019724507        1.36007491397874
H           -2.99451144908451        4.89423671902632       -0.36965100436931
H           -4.24512740601386        5.22557992332743        0.81882015596275
H           -0.79096663416724        2.78838283085227        2.86948775958326
