72
 energy: 70.603385033936 xtb: 6.6.1 (8d0f1dd)
N           -1.75102888917194        2.84200151267160        2.35925195896443
C           -1.66839032407692        2.21011319093258        1.28408069627236
C           -2.75015460609183        2.15621782336937        0.24374607783169
C           -3.32019196024774        0.74550282975179        0.19704659667271
C           -4.28412216723482        0.38776359308989       -0.75504705887652
C           -4.81757083481208       -0.88644993177971       -0.82197343677571
O           -5.77016440945332       -1.26503138034564       -1.72325392112508
C           -6.34333042345588       -0.28985294748329       -2.54960387463693
C           -4.36561917806063       -1.94263427294983        0.08880038257529
O           -4.71949234673490       -3.13734992074896        0.07681316399327
C           -4.55606206281702       -5.16168282015187        2.81576169493250
C           -3.39493923875073       -1.49901504262030        1.04310309079140
C           -2.90400342681273       -0.22449838265897        1.10576059192707
C           -2.07063473447885        2.49911829794988       -1.10785696761997
C           -1.21367938454967        1.36878528090380       -1.71092264355387
C            0.09153116324290        1.16366923122418       -1.04648248873675
N            0.61248141143652       -0.01494857071921       -0.71748067360645
C            1.97787151411268       -0.10392672300122       -0.24640906173212
C            2.94879304540451       -0.56749554549899       -1.35135009797241
C            4.37299595477731       -0.45993002439828       -0.87085881469801
C            5.09062058599365        0.70517823920336       -1.05791399596486
C            6.39654403039218        0.81893117450984       -0.59966752263595
C            7.00432524565186       -0.23430869268858        0.05775563095818
O            8.27120570905706       -0.23709662347532        0.54420215347549
C            9.07311890385368        0.90356197859939        0.35747372559837
C            6.27684292692723       -1.43236222504323        0.25871714680832
O            6.95354514337748       -2.41085072056852        0.91236159768898
C            6.32149823178024       -3.64639770934903        1.13795117668087
C            4.97773014835442       -1.52600794171313       -0.20507842576209
C           -0.07444256390472       -1.25925689290875       -0.96535925052223
C           -3.89707811744913        3.17131351186507        0.52318853145895
C           -4.67107489951255        2.80836550887245        1.78910254872317
C           -3.41388361387256        4.61719249617042        0.61532560685468
H           -4.61857721601029        1.15133698696516       -1.44812740852421
H           -6.81072280210003        0.52315778237174       -1.98043738186602
H           -7.11366429396382       -0.80558990639614       -3.12014774993269
H           -5.61927196689042        0.14313273167676       -3.25140254831142
H           -4.82646627570854       -4.44933904270224        3.55320533216728
H           -5.30358152787473       -5.72448878464622        2.31583298119921
H           -3.54363170876723       -5.41868249416148        2.69511862834156
H           -3.06311908622070       -2.25044015823915        1.74571571385428
H           -2.20146018229260        0.02466662399108        1.88921894308294
H           -2.84884313969293        2.75090069555366       -1.82966505719574
H           -1.44539839927865        3.38367386116830       -0.96944605771713
H           -1.79562030637872        0.45051158311771       -1.74014366981806
H           -0.99570527882575        1.67092494690963       -2.74302443002313
H           -0.75958413280442        1.65539494060907        0.97577471174978
H            0.71056385808873        2.02933078562022       -0.86984161521980
H            2.02047351267922       -0.80957011489664        0.58641936199684
H            2.30265559318869        0.87363669170518        0.11472383281385
H            2.81241389102942        0.06749232814720       -2.22930307540708
H            2.72675092826004       -1.59748526471117       -1.63395656886875
H            4.64320708179299        1.54082767893485       -1.57535162401719
H            6.93120765045494        1.74025360438187       -0.76606900730271
H            8.65190923778317        1.78121681241109        0.85890464461917
H            9.21858870435991        1.12639971124342       -0.70463507294436
H           10.03412998574414        0.66060555972288        0.80867828013282
H            7.05846349382035       -4.25889005856241        1.65494677061798
H            5.43537274594811       -3.53753160880516        1.77243805819880
H            6.04276075339664       -4.13496065535715        0.19878515413300
H            4.41918817235343       -2.43824802111300       -0.06403099804562
H           -0.17360543173665       -1.44860097268470       -2.03617883916788
H           -1.07014797259445       -1.24846197591908       -0.51677293070364
H            0.48801286147362       -2.07741074958903       -0.52261195477096
H           -4.59076386500245        3.10535652007244       -0.32229994066936
H           -4.02996274724789        2.90742320860221        2.65708746965917
H           -5.03701007135986        1.78663507358249        1.74046434731722
H           -5.52148878203201        3.47600036109619        1.90804365226241
H           -2.70064459168092        4.72920780194969        1.42655048849591
H           -2.96184487847865        4.95774808242816       -0.31297197274353
H           -4.26311735301483        5.26117920349151        0.82701586212851
H           -0.95687354631215        2.81783568365607        2.99155527269876
