72
 energy: 69.316046855465 xtb: 6.6.1 (8d0f1dd)
N           -1.71235916942565        2.82975353514798        2.35886455957252
C           -1.64280834632705        2.21239293685567        1.27289726615071
C           -2.73875709253467        2.16650138495249        0.24774184667268
C           -3.32207023247593        0.76209279715786        0.19465010531949
C           -4.28248923326047        0.43811006544355       -0.77380559014368
C           -4.81624554038213       -0.82598650900305       -0.86303052757676
O           -5.77506182704643       -1.20904332703573       -1.75008689392766
C           -6.37356840492681       -0.25717239305584       -2.58401609277922
C           -4.37323365473347       -1.90585434500271        0.01833448110583
O           -4.78966538891008       -3.07164287756186       -0.09243673569685
C           -4.51116778956435       -5.43062912511700        3.04188905191874
C           -3.42345240808300       -1.50670977898421        1.01063568013429
C           -2.92892351520960       -0.22924189082145        1.09277020506592
C           -2.07084187769376        2.49713350622130       -1.11571293898246
C           -1.21769864911461        1.35675828568443       -1.70118703777146
C            0.07410961522614        1.16234962513225       -1.00611452111721
N            0.62087265426961       -0.01698072211703       -0.70965893559552
C            1.98168337404614       -0.09457177020492       -0.23729796329486
C            2.94978258334584       -0.56358858570597       -1.34175831350633
C            4.37214655049041       -0.45636532486412       -0.86642005156814
C            5.08872936126610        0.70966619265113       -1.05423559970602
C            6.39534679867979        0.82325149844659       -0.59865377841995
C            7.00310920908119       -0.23089348449542        0.05881147768339
O            8.27263061457906       -0.23502506417941        0.54189210580098
C            9.07298581408042        0.90539068527902        0.35413233203166
C            6.27567998720792       -1.42844100803936        0.26230981520341
O            6.95368474768652       -2.40849782774528        0.91402467166431
C            6.32147335258049       -3.64366341029302        1.13810706657246
C            4.97522270578437       -1.52203221956245       -0.19912140982426
C           -0.07271517381809       -1.26239491619868       -0.93456262842634
C           -3.88588213970557        3.17691018732842        0.53581718987303
C           -4.64516978771874        2.80822537616242        1.80951286376868
C           -3.41006921902901        4.62571456695985        0.61924834190218
H           -4.61655258111407        1.20670559097719       -1.45665812675384
H           -6.84329838154056        0.55050465761406       -2.01043713175637
H           -7.14131765470527       -0.79593182012970       -3.13884310782585
H           -5.65629682996731        0.17441459196111       -3.29324716316228
H           -4.79015966044336       -4.65424584717442        3.72041494966134
H           -5.25286835493481       -5.87894998203509        2.41859447518643
H           -3.47953867496414       -5.66347308005079        2.89171161514630
H           -3.11193066886307       -2.26568492219331        1.71376946489430
H           -2.23006458547148        0.01533410455686        1.88258219525683
H           -2.85508597147334        2.72839133196792       -1.83666325260421
H           -1.44936471989004        3.38764084889134       -1.00322252933462
H           -1.80464575470840        0.43975590331421       -1.71941162125598
H           -0.99413663676614        1.63082635109832       -2.74187202422716
H           -0.74106471351222        1.66355277237904        0.93259625101983
H            0.70074034271576        2.03015361898626       -0.86130529238989
H            2.03032508789050       -0.78786765179130        0.60734006476634
H            2.29952700545728        0.89038147421097        0.11196017135757
H            2.80715380044937        0.06856827336265       -2.22039977378967
H            2.71974639893517       -1.59345020351723       -1.61743033086593
H            4.63895933511193        1.54395747292179       -1.57187783100074
H            6.93042965563707        1.74363823974040       -0.76936570346619
H            8.65246193397875        1.78323336069496        0.85595685023342
H            9.21732976722728        1.12813137766518       -0.70826015830919
H           10.03431042335492        0.66162497752567        0.80366510866242
H            7.05946151411160       -4.25711021258401        1.65259924331938
H            5.43624984501566       -3.53691698839663        1.77397326952676
H            6.03974812329613       -4.13096953121265        0.19882186006318
H            4.41485522022815       -2.43330772342530       -0.05707580396049
H           -0.18448381673123       -1.46429126254694       -2.00256796174717
H           -1.06451728841950       -1.24192421349463       -0.47560549195158
H            0.49567965031617       -2.07321692964764       -0.48614403282296
H           -4.58615896345883        3.10276187276673       -0.30399759980438
H           -3.99404375572428        2.90620584529312        2.67154074117520
H           -5.01119594652855        1.78582163118859        1.76060069672050
H           -5.49643059585639        3.47369938458220        1.93475011511268
H           -2.68625437170922        4.73866986499437        1.42036675281691
H           -2.96566725267010        4.95935479758167       -0.31562209619967
H           -4.25995088415100        5.26925768349863        0.83412628622265
H           -0.89532876562514        2.79852911393606        2.96358320810498
