72
 energy: 28.245511206271 xtb: 6.6.1 (8d0f1dd)
N           -1.60011260967703        2.81987336837807        2.28509178390182
C           -1.59900966247564        2.16309613803762        1.21293912424910
C           -2.75573944235550        2.09331684957724        0.24414604645178
C           -3.33178679026142        0.67091329110943        0.25904120208406
C           -4.29129890312438        0.22525619190562       -0.66210563112879
C           -4.83107407564445       -1.08472491839006       -0.63980034254825
O           -5.81231167094216       -1.42973973705682       -1.52494235897266
C           -6.37058901564418       -0.47512311542264       -2.40188246037997
C           -4.37461734569141       -2.07324919324296        0.35843519453310
O           -4.73152928536942       -3.47061904616787        0.64812897585418
C           -4.58709341800999       -4.39951958122872        1.90382748273974
C           -3.40919018099814       -1.55269143101274        1.20379461226622
C           -2.90654515041123       -0.25802313200854        1.19163125329137
C           -2.14664007911437        2.38798689580382       -1.15447669195883
C           -1.24079008670947        1.26635637689511       -1.69886396535509
C            0.04170933034961        1.17058593216352       -0.95695687723731
N            0.63531588661446       -0.03995836458135       -0.63966995066646
C            1.99543353518623       -0.06920342947567       -0.19730584741696
C            2.95162005114595       -0.55352375496479       -1.31200450218137
C            4.37021488930160       -0.44581722914775       -0.85528357706324
C            5.08730742736104        0.71962823138153       -1.04957281923990
C            6.39468371952012        0.83174509419858       -0.59933735941379
C            7.00304205931455       -0.22229379579307        0.05909340965751
O            8.28148686614275       -0.22454767355671        0.53673537917175
C            9.07257092683666        0.91738167310009        0.33647705529448
C            6.27698544921929       -1.41608840050442        0.27040303672474
O            6.95787463123459       -2.39833807052340        0.92638556083365
C            6.31960599011865       -3.62906603964046        1.14669191990404
C            4.97455553787867       -1.50768645724033       -0.18172984172254
C           -0.05823591287797       -1.28956942970409       -0.77668578825955
C           -3.88525009570405        3.11530600954487        0.55612211587526
C           -4.57725567621608        2.79026895851759        1.87810838460289
C           -3.40261227402423        4.56562574034255        0.57825388269920
H           -4.63412772414094        0.96745135343721       -1.38930621747485
H           -6.82940958190918        0.37055462449150       -1.87518379927327
H           -7.14990299193598       -1.01658985034468       -2.93879850226337
H           -5.64618144313117       -0.09053832997143       -3.12904570713461
H           -4.85799225790210       -4.00182704710649        2.87960633392102
H           -5.26762774348663       -5.23519487709214        1.69867698908082
H           -3.58521358044111       -4.81634850566490        1.94378027018777
H           -3.04629303299682       -2.24026553415254        1.95104822300047
H           -2.18177820350179        0.01772741680394        1.94320088560492
H           -2.95836227313962        2.55386725845067       -1.86596252643984
H           -1.56086244494703        3.30866994406272       -1.10038923454348
H           -1.78671975286676        0.32547558827462       -1.67412401853888
H           -1.03341531704156        1.50360744821082       -2.75535886382508
H           -0.71664849527418        1.64372516163691        0.78810780957249
H            0.69970753786539        2.02081172331374       -0.94870973334846
H            2.09318780127476       -0.73971806404234        0.66582059381147
H            2.29524768482908        0.93525327928681        0.10974715073989
H            2.78857206679112        0.06768312954106       -2.19517645036748
H            2.70302942530702       -1.58533737984832       -1.56661722506841
H            4.63223012356899        1.55014434671913       -1.56796679999781
H            6.92983957127377        1.75124486237946       -0.77692122330503
H            8.65092380486566        1.79713891011225        0.83507863434028
H            9.20883327418948        1.13514449275571       -0.72828118337326
H           10.03798648774029        0.68094332324633        0.78236953507080
H            7.05596633667397       -4.24878179096504        1.65570181604505
H            5.43659688906707       -3.51990467790069        1.78651268851163
H            6.03000776211509       -4.11178528573322        0.20672337297758
H            4.40934019736730       -2.41517540580487       -0.03256055291442
H           -0.20448854501435       -1.55839436132475       -1.82894585458187
H           -1.03791862296515       -1.24683663631406       -0.29166776334939
H            0.52475807078174       -2.07603767378096       -0.29925169739039
H           -4.62868215211650        3.02343571476552       -0.24493730365886
H           -3.87636741056369        2.90585300409905        2.69619116729455
H           -4.94969052141810        1.76887314597883        1.87660362255703
H           -5.41509280579586        3.46651720398084        2.03466640501403
H           -2.64286863829560        4.70041378092395        1.34272914754895
H           -3.00320957087171        4.87718589150819       -0.38349270903315
H           -4.24087842817016        5.21624494866507        0.81641030345387
H           -0.75052722456993        2.78162266363788        2.83928784654965
