72
 energy: 70.968225897356 xtb: 6.6.1 (8d0f1dd)
N           -1.73604337412350        2.84066820520519        2.35320302941200
C           -1.66294347001947        2.20635759942320        1.27873834036792
C           -2.75172881651816        2.14951354034902        0.24327479936377
C           -3.32061816174096        0.73646602593934        0.19788760871621
C           -4.28539043065579        0.37118682590732       -0.75077602007962
C           -4.82085907692552       -0.90486444899996       -0.80721161022188
O           -5.77757837580470       -1.28218716313285       -1.70522440008261
C           -6.34710728678274       -0.30831169411992       -2.53552343725896
C           -4.36344084970113       -1.95648694786975        0.10926874056971
O           -4.70613498116077       -3.15504386959243        0.13086361249994
C           -4.55673891149862       -5.09409168821256        2.74501013427431
C           -3.38478501349839       -1.50903892690178        1.04837227729942
C           -2.89992087831464       -0.23191257284291        1.10541225975895
C           -2.07761623118303        2.48836439326322       -1.11297423297719
C           -1.21517902383709        1.35898214632675       -1.71310774445775
C            0.09510253371425        1.15961031387816       -1.05312065628175
N            0.61480104339746       -0.01524318479027       -0.71696548232022
C            1.98058842083752       -0.10149751497531       -0.24318994463180
C            2.95081137424028       -0.56748481204139       -1.34945583341003
C            4.37477960786200       -0.46027340602350       -0.87199461225261
C            5.09252760812311        0.70484330253082       -1.05865640160468
C            6.39798670643618        0.81905737124807       -0.59927763592246
C            7.00582350616443       -0.23430445515096        0.05819987822555
O            8.27268956519722       -0.23632932080055        0.54456277133927
C            9.07333376557846        0.90467520247892        0.35552936206739
C            6.27831687937800       -1.43247974221349        0.25942416900146
O            6.95447637674146       -2.41075604170048        0.91403572510409
C            6.32122067847319       -3.64546638392957        1.13940170497387
C            4.97842858805561       -1.52488649490950       -0.20298410306901
C           -0.07254439852997       -1.26306549756256       -0.94770372564797
C           -3.89664812809385        3.16536094904849        0.52634896845818
C           -4.66256882321347        2.80648164424290        1.79843121919314
C           -3.41243137867099        4.61157307838230        0.61136108004031
H           -4.62059472487612        1.13264313877133       -1.44721132088806
H           -6.81363074239024        0.50781396444858       -1.96987758587572
H           -7.11777730532308       -0.82598921142602       -3.10381127249108
H           -5.62171508935860        0.12050629366952       -3.23855799857869
H           -4.82931600123152       -4.40185859089265        3.49554127199396
H           -5.29956477651500       -5.67237713649814        2.26062283764087
H           -3.54608187258650       -5.35439412333688        2.62103328423846
H           -3.04886246229924       -2.25553140306034        1.75577304406435
H           -2.19848294076402        0.02157814585250        1.88837028624422
H           -2.86019769877627        2.73148780490125       -1.83396042706713
H           -1.45613711177391        3.37676219755445       -0.98342534599694
H           -1.79251763957068        0.43747937614675       -1.73319779282955
H           -1.00681278700254        1.65794125189201       -2.74946901022724
H           -0.75562717319713        1.65599219614016        0.95643455323304
H            0.71648605044856        2.02522447929813       -0.87656812043664
H            2.03004627955852       -0.80497723008196        0.59182054621209
H            2.30201475989824        0.87914787791320        0.11237077629159
H            2.81065203060322        0.06655933222876       -2.22707627041569
H            2.72484168261301       -1.59762235376985       -1.62777697037532
H            4.64409631748304        1.53983120339391       -1.57609069017668
H            6.93184743588405        1.74121248555994       -0.76488449831472
H            8.65203239549853        1.78268814323043        0.85648286057382
H            9.21758464815834        1.12704691999510       -0.70692424122845
H           10.03506324195119        0.66301920927209        0.80632987781209
H            7.05740258222170       -4.25916004726485        1.65610366129927
H            5.43501625284255       -3.53564594441659        1.77375331161382
H            6.04113005477012       -4.13306760218542        0.20008415488472
H            4.41820587916540       -2.43601969779896       -0.06095578358604
H           -0.17553474378108       -1.46229996977458       -2.01652419005045
H           -1.06699616671654       -1.24729018425258       -0.49567914747454
H            0.49082285431227       -2.07784896750031       -0.49914313466322
H           -4.59570813109404        3.09685952075018       -0.31459940488031
H           -4.01461538778038        2.90781248393776        2.66083703912670
H           -5.02882119242473        1.78452873366758        1.75477502922986
H           -5.51190411023677        3.47495130389878        1.92130486943662
H           -2.69459640014458        4.72585150952815        1.41837521944970
H           -2.96479994413915        4.94856817214411       -0.32040434407957
H           -4.26025226756537        5.25687837465566        0.82510328359290
H           -0.93538394133360        2.81162534566526        2.97589579030824
