72
 energy: 70.315893250722 xtb: 6.6.1 (8d0f1dd)
N           -1.68762782900675        2.83510095695420        2.32868280754792
C           -1.64294557978225        2.19404113897957        1.25597590632283
C           -2.75554228227030        2.13102130661410        0.24292397451881
C           -3.32574269631458        0.71268459653188        0.21242811001358
C           -4.28526208860797        0.31970088572729       -0.73275781733800
C           -4.82685587817962       -0.96246726753253       -0.75662628647595
O           -5.79544643532692       -1.33441943441598       -1.65051373184282
C           -6.35649289643041       -0.36550536104460       -2.49290602268623
C           -4.36023162615378       -2.00227607805029        0.17455713399590
O           -4.69609803904621       -3.21154550847900        0.30316616854131
C           -4.56007405479002       -4.88538206351924        2.49822601122139
C           -3.37896839402976       -1.53022105912170        1.08322157333081
C           -2.90386004397491       -0.24502581923474        1.12609992774464
C           -2.10015863616598        2.45717090816321       -1.12776638163669
C           -1.22410707993020        1.32815039175362       -1.71148738013879
C            0.08483022179486        1.15442052778978       -1.03610385561422
N            0.62144888619641       -0.01871700163473       -0.70276509233430
C            1.98648906955253       -0.09130025992348       -0.22862521748701
C            2.95260487944907       -0.56322289174286       -1.33724766521025
C            4.37509528347386       -0.45542701782195       -0.86571518226565
C            5.09252274070727        0.70926746011040       -1.05539140330946
C            6.39890533752008        0.82218490222925       -0.59847098036972
C            7.00709704979873       -0.23194311157987        0.05954288543702
O            8.27684756773649       -0.23409523197716        0.54329447785371
C            9.07355274478349        0.90837822050105        0.34957562128464
C            6.27969992258229       -1.42902881262031        0.26341820637969
O            6.95661991428236       -2.40841329009981        0.91815872512592
C            6.32069123730772       -3.64104365919508        1.14229937765824
C            4.97818697596736       -1.51964576777831       -0.19557770687955
C           -0.06781349697375       -1.27359458151772       -0.89191107212720
C           -3.89358330815282        3.14939206226430        0.53585653562354
C           -4.63478892767494        2.80160537601034        1.82546588605806
C           -3.40967904165974        4.59718408113233        0.60056406921654
H           -4.62652550430576        1.07580630922551       -1.43682332970231
H           -6.81949877278307        0.46169547941661       -1.93954511116181
H           -7.13079441155794       -0.88983440566377       -3.05095770333474
H           -5.63022135085070        0.04927751431781       -3.20318602194820
H           -4.83857978231530       -4.27054959664756        3.30954222752978
H           -5.29006579673768       -5.52843309554337        2.07963380948744
H           -3.55126978920523       -5.17454243233762        2.39932102500642
H           -3.04677345492861       -2.25689957556419        1.81427934483028
H           -2.19916063372392        0.01461163631561        1.90256118709783
H           -2.89352638369609        2.67422636875294       -1.84633663461472
H           -1.48994348839156        3.35683579701910       -1.02410268678435
H           -1.79013605374571        0.39993202542439       -1.71349968673292
H           -1.02248918486271        1.60674366836864       -2.75739666288871
H           -0.74266358688927        1.64998809034708        0.90104058506733
H            0.71645657430766        2.02336172167887       -0.90183099989359
H            2.05090765227117       -0.78598194779417        0.61466055824213
H            2.29858877903386        0.89767963686006        0.11158296140882
H            2.80442716370725        0.06675319632850       -2.21675406745033
H            2.71813899084241       -1.59376915557766       -1.60762230398534
H            4.64053412782967        1.54192768125276       -1.57329963393957
H            6.93204979430047        1.74424693280218       -0.76821751877513
H            8.65151738938255        1.78681861301783        0.84951457905020
H            9.21454602748206        1.12915019518600       -0.71371264656299
H           10.03672067556688        0.66938054893178        0.79868266508978
H            7.05627681919508       -4.25671901936503        1.65697769171075
H            5.43543574814035       -3.53058604348233        1.77816113333550
H            6.03735413794583       -4.12657072559647        0.20267452013195
H            4.41535497789611       -2.42912791085237       -0.05151910867358
H           -0.18644794847377       -1.49765206022119       -1.95460899912767
H           -1.05661587730916       -1.24914831979278       -0.42637538709483
H            0.50275813386356       -2.07877846451868       -0.43312067807501
H           -4.60809791204814        3.07257193593635       -0.29171490781083
H           -3.96866270076209        2.90794376920784        2.67318390463063
H           -5.00295974128426        1.77971039370078        1.79550183403623
H           -5.48042473937486        3.47278457335226        1.95980117417534
H           -2.67752223385176        4.71800262146876        1.39387976974322
H           -2.97789165625147        4.92632417519096       -0.34143303335005
H           -4.25417173789339        5.24413970603112        0.82315387993434
H           -0.87277603757146        2.80052839540994        2.93063153072361
