72
 energy: 61.689035221574 xtb: 6.6.1 (8d0f1dd)
N           -1.64203272216969        2.82583356810291        2.30517909544622
C           -1.62226588790194        2.18045140793376        1.23328631191086
C           -2.75725071890153        2.11161631092572        0.24323541904295
C           -3.33038748342567        0.69015466046071        0.23387906731222
C           -4.28600864037807        0.26644346359265       -0.70367200402398
C           -4.82558780681270       -1.02908869460603       -0.70064803191081
O           -5.80613128077926       -1.38604549060700       -1.59228528172332
C           -6.36360676303792       -0.42137417902021       -2.44744764782116
C           -4.36371179452878       -2.05148081619301        0.26135240627575
O           -4.67877107287479       -3.31884442059471        0.45650641667344
C           -4.56820733640887       -4.65725156322797        2.22149166038376
C           -3.39355032657033       -1.54149556022685        1.13949942579586
C           -2.90702525011817       -0.25101065297027        1.15693295518616
C           -2.12342396254885        2.42322504631727       -1.14061629624854
C           -1.23327744818055        1.29699400663591       -1.70493114580500
C            0.06887816559027        1.15736599213985       -1.00625685550309
N            0.62690681890165       -0.02583482529148       -0.67601364864893
C            1.99188406485066       -0.07994399394511       -0.21273228295661
C            2.95133057558683       -0.55810608025329       -1.32399881299437
C            4.37316091792733       -0.45018073003021       -0.85927102713141
C            5.09003912187303        0.71438367634017       -1.05213232886010
C            6.39735419086153        0.82667656355728       -0.59845888734415
C            7.00574615046012       -0.22750390286632        0.05978843961328
O            8.27938450646501       -0.22988084187016        0.54034951418301
C            9.07330088553776        0.91278554095013        0.34314121514205
C            6.27888795180175       -1.42328581878701        0.26721631441363
O            6.95728306836870       -2.40353007161360        0.92255832267922
C            6.32004998201457       -3.63546886084463        1.14479096308096
C            4.97644046199326       -1.51360942449260       -0.18848016285171
C           -0.06422506958110       -1.28230393041362       -0.83463429948626
C           -3.88923216372236        3.13302356805310        0.54579400168248
C           -4.60623906444964        2.79663565348915        1.85170976007956
C           -3.40587059881637        4.58220752232697        0.58924861318544
H           -4.63370448479531        1.01529996725452       -1.41901959178719
H           -6.82394593185485        0.41556542148340       -1.90623583686121
H           -7.14132986441993       -0.95225032124098       -2.99611410264447
H           -5.63819400872283       -0.02003630114818       -3.16616626015852
H           -4.84532479018280       -4.13805438240535        3.10696516808894
H           -5.27962939888026       -5.38211195244407        1.88927593931559
H           -3.56212036049109       -4.99657469611119        2.17133724405475
H           -3.04586850447333       -2.24989000264884        1.87930959095953
H           -2.19119600193867        0.01626300375298        1.92151080827121
H           -2.92656900839390        2.61400188958350       -1.85561003901235
H           -1.52564725979771        3.33395056298029       -1.06186967889128
H           -1.78846671000267        0.36231762613544       -1.69275097105801
H           -1.02970460686619        1.55463004109305       -2.75659592598690
H           -0.73000896156972        1.64677728467635        0.84514792219680
H            0.71151860324781        2.02259358578112       -0.92679906489658
H            2.07274646213635       -0.76364606071308        0.63965905002883
H            2.29730558858660        0.91682300027464        0.11110894512917
H            2.79690880591454        0.06710170178110       -2.20603238929051
H            2.71086379306417       -1.58949655133010       -1.58693192591409
H            4.63652570669158        1.54595745684335       -1.57041641869407
H            6.93106708278609        1.74770893488184       -0.77233716105974
H            8.65123355777366        1.79172184793033        0.84237703365733
H            9.21174480136780        1.13193315007697       -0.72086462263988
H           10.03755719682857        0.67524948860053        0.79071040373212
H            7.05604258899373       -4.25294970883102        1.65651885205037
H            5.43599605132245       -3.52536428763377        1.78253729242742
H            6.03368790961799       -4.11945439138337        0.20497669139195
H            4.41231626298336       -2.42204824421177       -0.04193966004611
H           -0.19610902130341       -1.52885700163739       -1.89166719930857
H           -1.04788717892997       -1.24813120561466       -0.35891712370965
H            0.51237623386234       -2.07821431009063       -0.36605136125619
H           -4.61826190109663        3.04832819479249       -0.26850829829310
H           -3.92278965249144        2.90767105209306        2.68482988662729
H           -4.97635745662365        1.77500955007507        1.83573018205711
H           -5.44805193871224        3.47044198859294        1.99693190976689
H           -2.66002840433540        4.71038948649142        1.36862841431295
H           -2.99023316685573        4.90303097780490       -0.36275116510725
H           -4.24737622799932        5.23065806435602        0.81974634003642
H           -0.81090822727381        2.79200500810218        2.88456291090489
