72
 energy: -99.179184439438 gnorm: 0.009419653471 xtb: 6.6.1 (8d0f1dd)
N           -1.73805656963286        2.86162182888654        2.14451518673628
C           -1.72865028804949        2.09546111968291        1.15799806909491
C           -2.88020169301376        1.91034086411103        0.20809382169595
C           -3.39879881505236        0.48570673174401        0.31345819764431
C           -4.30732238667643        0.00615636392349       -0.63268465209157
C           -4.81147195113563       -1.28169818354611       -0.56375431933889
O           -5.69223091407464       -1.82114902162074       -1.43297193743673
C           -6.25207117945510       -1.00913076066965       -2.43806841270631
C           -4.39166522737144       -2.14234466579436        0.48604306149947
O           -4.91563377095856       -3.38522289885543        0.46312627678601
C           -4.60132957810727       -4.27837411868898        1.50559334353958
C           -3.50255097474737       -1.65521434580184        1.43046517639361
C           -3.01583923954531       -0.35623771295465        1.34549165603661
C           -2.30315434081992        2.17174545044464       -1.20943046812467
C           -1.46588877473214        1.01912960348514       -1.80142133740807
C           -0.17539854334682        0.80430406655787       -1.11074178701769
N            0.29006573623876       -0.36770623274580       -0.68410796617742
C            1.62264472181865       -0.47802870893041       -0.16740678596440
C            2.61407905781529       -1.07511105081662       -1.22102598353188
C            4.00740630358743       -0.98395295549873       -0.83034582307452
C            4.98036450800749        2.15702464791041        0.15524196528854
C            6.24947066232951        1.88415535438210        0.05612041024996
C            6.92964669060796        0.58460276668570        0.07242907326364
O            8.27948888680523        0.47329040739581        0.03680771774174
C            9.10862739385213        1.60123889696681       -0.09877303486202
C            6.23942748348768       -0.60033332975721        0.12372360515314
O            6.96409098390061       -1.73469502707883        0.14808992526510
C            6.30523400697445       -2.97380087862938        0.26687392178186
C            4.75921302028516       -0.63497741865181        0.17699516841881
C           -0.46865063369951       -1.58944550288456       -0.82201647775237
C           -4.06843977426842        2.87917951879100        0.48416858965699
C           -4.70914569874317        2.60285500969648        1.84257407676253
C           -3.67980593670316        4.35189448998742        0.38874716249819
H           -4.63366161046116        0.65669475117740       -1.42711179230975
H           -6.76850598595385       -0.14340108806175       -2.01276611307790
H           -6.97277990645054       -1.63990091240856       -2.95463399794159
H           -5.49400742830051       -0.67022467420830       -3.15199250065150
H           -4.90907820431995       -3.88408623452843        2.47848227800887
H           -5.16121537287280       -5.18637517386119        1.29092128544364
H           -3.53130511081927       -4.50983774306885        1.52684384620339
H           -3.18601739255460       -2.27674342840426        2.25217747438059
H           -2.34597294283832       -0.00397100681014        2.11436496124487
H           -3.12921447850720        2.36543360199469       -1.89315956924822
H           -1.68938288284926        3.07284607095469       -1.17364094200250
H           -2.06204257732075        0.10928413824334       -1.82638445505900
H           -1.24489546250432        1.30455112402191       -2.83812003087431
H           -0.84933417091901        1.49908072120175        0.84972072153799
H            0.49745764657724        1.64610526552885       -1.04059615164143
H            1.62032673506089       -1.11742137767518        0.71948339285492
H            1.98214892424771        0.51356880576773        0.11473657215231
H            2.48014114841465       -0.51815899140857       -2.15737720502560
H            2.35244745817835       -2.11933489359077       -1.42021813636734
H            4.00000170423456        1.76048518542941        0.26850547388335
H            6.94034418364744        2.72144786736703       -0.03319615246611
H            9.01263095363562        2.28115360470407        0.75346248011826
H            8.91325771920510        2.13852851365582       -1.03247171567716
H           10.12213980933814        1.20507718720251       -0.12338452228411
H            7.09488731770147       -3.72201718914298        0.29194145100957
H            5.72220314149714       -3.02682641793943        1.19285172892957
H            5.64391161762816       -3.15884454036380       -0.58370305471804
H            4.36037010223231       -0.41573297938217        1.18360356836294
H           -0.58378418638786       -1.86636965500432       -1.87237809114372
H           -1.45884809309597       -1.47611508045994       -0.37632517582796
H            0.04989628554002       -2.39335457210154       -0.30569565970747
H           -4.81894437367712        2.67551497599159       -0.28843265524993
H           -3.99985917128692        2.80937576292384        2.63753311809481
H           -5.03710708695283        1.56908308699008        1.92052164397571
H           -5.57440332015319        3.24695308337152        1.97482519772477
H           -2.91966852867562        4.58895547378912        1.12650568643624
H           -3.31387000726987        4.61308354246321       -0.60063731486811
H           -4.55420128742815        4.96430789292914        0.59311138056529
H           -0.89100273411639        2.93004051750414        2.70009039779182
