  25
        -42.08433150
 C          2.5675976977        1.3787263958        0.2633468018
 N          1.8834407110        0.1185830004        0.1712121725
 C          2.4157484741       -1.0943695560        0.2007371179
 N          1.4454317820       -2.0219069332        0.0752919662
 C          0.2526445088       -1.3668010861       -0.0441016097
 C          0.5338686423       -0.0238218522        0.0253177910
 C         -0.5531013564        0.9590462395       -0.1282256830
 O         -0.4103189908        1.9342591438       -1.0805855825
 N         -0.3716358007        2.2762968096        0.3285350672
 C         -1.4930712638        3.0618282423        0.7850435403
 C         -2.0523993749       -0.9466432826       -0.0987597297
 O         -1.8139857766        0.3220387080       -0.0444294787
 N         -1.0282851711       -1.8310739608       -0.1536954826
 C         -1.2848370350       -3.2533699674       -0.2567829649
 H          2.2621012229        1.8996440061        1.1716109749
 H          3.6424419508        1.2171342603        0.2704949920
 H          2.2887982488        2.0054615182       -0.5846785257
 H          3.4603721574       -1.3121060762        0.3035052158
 H         -1.2027308413        4.1058120120        0.6818514410
 H         -2.4055990546        2.8702051699        0.2204319394
 H         -1.6479682813        2.8289721647        1.8366406938
 H         -0.9442421884       -3.7726007732        0.6404459275
 H         -0.7832337443       -3.6632882564       -1.1347594576
 H         -2.3576928204       -3.3919896211       -0.3616901979
 H          1.5845585651       -3.0229481779        0.0624969542
