  25
        -42.04256353
 C          3.0754878182        1.1639932019       -0.0938096608
 N          2.1747026423        0.0474884059       -0.1066395070
 C          2.4860159419       -1.2479837624       -0.2126639959
 N          1.3666746125       -1.9835433718       -0.1678821704
 C          0.2837983611       -1.1584415817       -0.0332665426
 C          0.7878831396        0.1691930306        0.0225948409
 C          0.1309092560        1.3552673140        0.0871124796
 O          0.4055827579        2.6314709366        0.4137168677
 N         -0.9515809137        2.0576180814        0.5362142322
 C         -1.9209876153        2.6347818358       -0.3566994035
 C         -1.9904103515       -0.7841639595       -0.3614238519
 O         -3.1667269822       -0.6731663557       -0.4337293795
 N         -1.0347704700       -1.5808360863        0.0474839189
 C         -1.3205207773       -2.9058350993        0.6282657497
 H          2.9867648585        1.7071085008        0.8488900526
 H          4.0970340299        0.8141262805       -0.2167804483
 H          2.8279296719        1.8539736680       -0.9024617106
 H          3.4786496099       -1.6369361857       -0.3134187692
 H         -2.2222483901        3.5916666705        0.0663839196
 H         -1.5442811686        2.7820418199       -1.3711740023
 H         -2.7820671104        1.9700555354       -0.3718939359
 H         -0.7101347614       -3.0481887126        1.5200990801
 H         -1.1282568394       -3.6962556061       -0.0989144389
 H         -2.3706894638       -2.9405549170        0.9083513435
 H          1.3291594905       -2.9899237536       -0.2359915970
