  72
        -99.29253786
 N         -1.7210296863        2.5998216039        2.5502663876
 C         -1.7065034701        2.0253531779        1.4424717330
 C         -2.8691447272        1.9750364032        0.4898520386
 C         -3.4224824242        0.5582579756        0.4345905329
 C         -4.4077163751        0.2407365881       -0.5024045101
 C         -4.9588079356       -1.0277727785       -0.5738553813
 O         -5.9227836372       -1.4096224023       -1.4343029094
 C         -6.5178786720       -0.4490338312       -2.2752752214
 C         -4.5010621621       -2.0406439519        0.3136242457
 O         -5.0869255559       -3.2438170558        0.1690870376
 C         -4.7491985775       -4.2856635474        1.0554003740
 C         -3.5189419140       -1.7197199029        1.2377747784
 C         -2.9908310805       -0.4361845195        1.2992550356
 C         -2.3096436062        2.3686103518       -0.9022820242
 C         -1.4311430838        1.2889375663       -1.5582666847
 C         -0.0861956721        1.1812984575       -0.9523256356
 N          0.5534154879        0.0536695802       -0.6862981402
 C          1.9439374564        0.0783279852       -0.2959547589
 C          2.8724072932       -0.3067889114       -1.4618124782
 C          4.3025201904       -0.1334107212       -1.0259347336
 C          4.9568375170        1.0834964569       -1.2528991026
 C          6.2617410443        1.2735264870       -0.8306954636
 C          6.9471834732        0.2715180088       -0.1602931903
 O          8.2031887718        0.3513641639        0.2826085284
 C          8.9630463322        1.5120352897        0.0414085433
 C          6.2958182773       -1.0146131487        0.1215633303
 O          6.8737049576       -1.9208699443        0.7340266848
 C          5.5079075611       -5.4192453941        0.6937098824
 C          4.9509351493       -1.1420530417       -0.3585168787
 C         -0.0668732763       -1.2393758509       -0.8475647465
 C         -4.0248258287        2.9409051250        0.8883164671
 C         -4.6804010579        2.5169647219        2.2002532675
 C         -3.5843448715        4.3992965417        0.9784849279
 H         -4.7608482118        1.0028740696       -1.1766668504
 H         -6.9596692729        0.3690942724       -1.6986805556
 H         -7.3040308562       -0.9771200237       -2.8110547475
 H         -5.7998613684       -0.0449463098       -2.9962799608
 H         -4.9618134124       -4.0132834430        2.0933000736
 H         -5.3756146683       -5.1276410334        0.7676443099
 H         -3.6961729287       -4.5686627228        0.9594556766
 H         -3.1642482234       -2.4627614642        1.9335339180
 H         -2.2531243414       -0.2182410926        2.0560191833
 H         -3.1460017761        2.5754747144       -1.5687131787
 H         -1.7316238226        3.2881963808       -0.8044603958
 H         -1.9555450220        0.3347281694       -1.5543941973
 H         -1.2905054351        1.5873493233       -2.6053512164
 H         -0.8137201226        1.5213991914        1.0236112166
 H          0.4800640683        2.0950832109       -0.8425018155
 H          2.0999911759       -0.6153018475        0.5343827101
 H          2.2038036470        1.0827939584        0.0444948360
 H          2.6590542260        0.3378936610       -2.3161240879
 H          2.6925464577       -1.3419008003       -1.7526425399
 H          4.4465039926        1.8789908771       -1.7744998167
 H          6.7430343546        2.2178796012       -1.0323774977
 H          8.5183286625        2.3867660173        0.5255766119
 H          9.0675774300        1.7025155727       -1.0307866602
 H          9.9430970924        1.3185791957        0.4729991466
 H          6.4774608440       -5.6817726894        1.0590735407
 H          4.7405408268       -5.1362237635        1.3822649396
 H          5.3151099910       -5.4147389529       -0.3574372410
 H          4.4657615752       -2.0885530041       -0.1723584890
 H         -0.2526594604       -1.4593472697       -1.9007990460
 H         -1.0167088738       -1.2765774155       -0.3085222473
 H          0.5910848163       -2.0045494900       -0.4439713061
 H         -4.7787299596        2.8664291014        0.0965680248
 H         -3.9693347611        2.6007012582        3.0158122541
 H         -5.0384784212        1.4916456166        2.1480859669
 H         -5.5268447282        3.1653492874        2.4104034908
 H         -2.8150470161        4.5168734814        1.7355687512
 H         -3.2128232929        4.7717509771        0.0274227082
 H         -4.4360702872        5.0108014277        1.2644201858
 H         -0.8717221204        2.5935633361        3.1058242858
