72
 energy: -99.292843713354 gnorm: 0.002169427596 xtb: 6.6.1 (8d0f1dd)
N           -1.95079714990757        2.86518483004956        2.27169458582583
C           -1.89825900829080        2.13948428670480        1.25706658930299
C           -3.03650277130997        1.92495826140853        0.29801839133007
C           -3.48221384368274        0.47199904731203        0.35871088197179
C           -4.37053368945394       -0.02194282492395       -0.59885396277140
C           -4.82260207369356       -1.33034295401284       -0.56013101561416
O           -5.68294592628207       -1.88411477118922       -1.43952594485303
C           -6.25952226289658       -1.07940031147949       -2.44083474675468
C           -4.37018391997587       -2.19711110172615        0.47147604727573
O           -4.85950053961642       -3.45227956866399        0.43040238915552
C           -4.53143067982163       -4.34976001169692        1.46542667075564
C           -3.48933204091611       -1.70015210061438        1.41880594522169
C           -3.05381616426254       -0.38222266194248        1.36288410733767
C           -2.47140646975370        2.25314422981092       -1.10899174451659
C           -1.52762966740579        1.18190712497345       -1.68218625275898
C           -0.19843804755589        1.14898951476879       -1.03291636645583
N            0.46220619088039        0.05155635886407       -0.69164882076199
C            1.85313339943400        0.12697942850378       -0.30889325317265
C            2.78034155916045       -0.16841004696009       -1.50123720369507
C            4.21715451865456       -0.11616974849821       -1.05237729474351
C            4.86589969636727        1.14264526437375       -0.93096688262199
C            6.21199191671310        1.22560138009957       -0.59526497114443
C            6.94528800626413        0.10011570614924       -0.29938422697561
O            8.25428147300444        0.02483022748177       -0.08824444545432
C            9.04230761267582        1.19907320335726       -0.12417310159516
C            6.26375473404406       -1.25158930041801       -0.16808233382607
O            6.26833198438423       -1.57252023315815        1.22337077855591
C            6.08535655996937       -2.93939216475947        1.48759393699962
C            4.88691463083308       -1.22342815812752       -0.68619429865442
C           -0.12879937527335       -1.26130370182543       -0.79296225517425
C           -4.27282329204879        2.82507841879816        0.59342367325033
C           -4.90566263146745        2.48142875218502        1.93967325772474
C           -3.95719561017617        4.31720671977802        0.53800518462413
H           -4.72529664510336        0.63240440369167       -1.37772248213259
H           -6.81549682575352       -0.24077287119294       -2.01102187550946
H           -6.94766359201867       -1.72982896636550       -2.97709256086694
H           -5.50482878698974       -0.70090505728822       -3.13810952112153
H           -4.84951455384613       -3.96971789932134        2.44069721823793
H           -5.07433637396449       -5.26560153290873        1.24044363821424
H           -3.45774967180647       -4.56193654164195        1.48803439127766
H           -3.14216403762370       -2.32933148368135        2.22215300915770
H           -2.39293862661095       -0.02388437448908        2.13685302639029
H           -3.30447871644318        2.37437381629945       -1.80049581600017
H           -1.94273593333118        3.20591560889836       -1.06130153639944
H           -2.01459783927176        0.20894994808967       -1.64872281495850
H           -1.36505277599125        1.43763888536467       -2.73768533289849
H           -0.98492426054926        1.60677586147721        0.92721607279160
H            0.34334696614295        2.08089459268554       -0.96059225205086
H            2.05011542406722       -0.59693006636566        0.48523837847910
H            2.06919063732763        1.12548409039517        0.07752284886512
H            2.60262384026606        0.56836399581643       -2.28698490083628
H            2.56319746836246       -1.16112252554722       -1.89535502856389
H            4.30756723651871        2.04667156152083       -1.12311056599215
H            6.68260532107435        2.19724369168804       -0.58733791610255
H            8.73923140673121        1.89817138957119        0.65937096127007
H            8.97669996023829        1.68815939311224       -1.09979957463471
H           10.06517357925415        0.87348154856714        0.05396346085051
H            6.06101245561617       -3.03858821681551        2.57076354626477
H            5.14262832249517       -3.30078320346801        1.06062415570016
H            6.91091999078136       -3.53595364845517        1.08185731361414
H            6.87814719362508       -2.00324884200167       -0.69719473461468
H           -0.31283009953018       -1.53430681942139       -1.83414023200174
H           -1.07573815007130       -1.29472681665514       -0.24851235565639
H            0.54833363161449       -1.99234576764968       -0.35886586474078
H           -5.00834358277642        2.60514765477094       -0.18903222626333
H           -4.21260826468518        2.70398677575923        2.74454916982971
H           -5.17937271517097        1.43029847408356        1.98881621601784
H           -5.80422393410959        3.07593461357483        2.08182578412089
H           -3.20463017094909        4.57090473496515        1.27807150627547
H           -3.61211316980939        4.62390415849747       -0.44583312546565
H           -4.85889136910224        4.88022350390772        0.76409874270612
H           -1.11111486020439        2.95915235839681        2.83439280155972
