25
 energy: 0.000000000000 xtb: 6.6.1 (8d0f1dd)
C            3.23720132972391        1.16630909158653        0.08434468864950
N            2.29877796055224        0.07527476373246        0.03981602671198
C            2.58028186251803       -1.21425391179017        0.03006175752192
N            1.43813944744728       -1.93419254010258        0.00098261751768
C            0.39035684826767       -1.05887462812143       -0.00790371763344
C            0.93510047688824        0.21347817468824        0.01709077332874
C            0.09450143016486        1.40504290868848       -0.00410946993748
O            0.49712746915594        2.54126690785742       -0.00342325656480
N           -1.25076628431515        1.06271869620815       -0.03085477937476
C           -2.21907191394203        2.15522079838987       -0.05001256521996
C           -1.81739470187490       -0.20012724136556       -0.04692818139228
O           -2.99983858926755       -0.37846413507442       -0.07008877579474
N           -0.92618577614240       -1.30210203518959       -0.03682761236648
C           -1.46982251276835       -2.64643077634382       -0.06029819901142
H            3.71247229913541        1.21471443890471        1.06488839270555
H            4.00791460421487        1.03430799217987       -0.67357688121503
H            2.69909982127087        2.09770098766290       -0.09130154035862
H            3.56654087521359       -1.63682977417947        0.04233139674524
H           -1.67107945562430        3.09322822573871       -0.02552706696334
H           -2.82428927394145        2.09428605349656       -0.95318074103337
H           -2.87644002486466        2.07745706351925        0.81450059976605
H           -1.17061985538665       -3.19584861009707        0.83242224714061
H           -1.14560246782873       -3.17511580834413       -0.95688266944647
H           -2.55549768731684       -2.55659960601237       -0.07459039105944
H            1.38130842369251       -2.94313824728853       -0.01389874052104
25
 energy: -6.287201434336 xtb: 6.6.1 (8d0f1dd)
C            3.24209946821976        1.18076162862905        0.08623266501931
N            2.32078136114643        0.09310390484716        0.03407640135796
C            2.60895561201786       -1.26134108927264        0.03245597003644
N            1.41279829462887       -1.93584459492029        0.00084661789625
C            0.40123404280492       -1.05198398308744       -0.00832504977884
C            0.93157648060667        0.23041561365178        0.01448449086666
C            0.12128628607311        1.39038736372316       -0.00598926668857
O            0.49043202234580        2.56730287632380       -0.00500553993242
N           -1.26653957995944        1.05288808636033       -0.03114639900133
C           -2.22309632878876        2.14917692988205       -0.04929768407059
C           -1.81528377554025       -0.19298277649131       -0.04709740405090
O           -3.01355521903726       -0.38362578350838       -0.06981056383349
N           -0.93569350413274       -1.29332261006049       -0.03721194894036
C           -1.46394318814999       -2.63740130726587       -0.06038208121356
H            3.71571340043652        1.23556751271386        1.07007947372512
H            4.01388216403731        1.05510095445326       -0.67441209181086
H            2.69132446810283        2.10584278743219       -0.09244645138347
H            3.55372334331381       -1.75765830815139        0.04326738050197
H           -1.66973670622673        3.08558450963667       -0.02479969911951
H           -2.83015122732026        2.09375871546754       -0.95304226215549
H           -2.88141868236538        2.07648274927364        0.81629520535797
H           -1.15945906881323       -3.18986699597088        0.83175166706678
H           -1.13491716976522       -3.16959146952847       -0.95627067347847
H           -2.54937007455260       -2.55383703419980       -0.07456902056735
H            1.35389187993817       -2.93808605538734       -0.01448861879218
25
 energy: -5.124065482097 xtb: 6.6.1 (8d0f1dd)
C            3.24449458965815        1.18853954691207        0.08658552234766
N            2.33888414191562        0.08432587220054        0.03295643890047
C            2.62031014013957       -1.28385434069815        0.03232388688288
N            1.40741192424188       -1.93001030557285        0.00112364537078
C            0.40349654184916       -1.04255685625234       -0.00859034008253
C            0.94426340635032        0.23549382835225        0.01362033957349
C            0.12829741353040        1.39452975346022       -0.00668564528401
O            0.48772803710221        2.57393462817640       -0.00550622052467
N           -1.26525024400070        1.05475309721064       -0.03105907847493
C           -2.22701897420364        2.14776176022178       -0.04916248086247
C           -1.81601705166939       -0.19006599583893       -0.04707572986820
O           -3.01429588760054       -0.38246758595105       -0.06972426016659
N           -0.93349844555807       -1.28618446890246       -0.03718617103237
C           -1.45686491318716       -2.63250318034733       -0.06026893767462
H            3.71658754044427        1.25171101458964        1.07090455657006
H            4.01682051778513        1.07547228916322       -0.67501596435694
H            2.68103484920239        2.10907790381252       -0.09190391497733
H            3.52907446781229       -1.86393484032144        0.04309007644022
H           -1.67703601033396        3.08542923688087       -0.02448754667925
H           -2.83547286348666        2.09175550277252       -0.95252068333867
H           -2.88684844519843        2.07425015977180        0.81583329479168
H           -1.15019789091872       -3.18441729418056        0.83151488235046
H           -1.12537260691868       -3.16395828644116       -0.95570698664588
H           -2.54265300596743       -2.55336182335932       -0.07466871613061
H            1.34116430652711       -2.93015137415779       -0.01388584882032
25
 energy: -2.759409403143 xtb: 6.6.1 (8d0f1dd)
C            3.24553203214100        1.19655167108250        0.08660585940748
N            2.35613777034652        0.07617259725875        0.03151896633416
C            2.63291241200621       -1.30663410372970        0.03289622322148
N            1.40377534445045       -1.92356786802773        0.00269741298584
C            0.40633661186259       -1.03300129314791       -0.00851755697449
C            0.95609559329561        0.24116198593881        0.01273654586949
C            0.13445283603259        1.40001273233405       -0.00758703418597
O            0.48452719166470        2.58137496786878       -0.00653827706084
N           -1.26434829431955        1.05728749313422       -0.03104569907378
C           -2.23086813824182        2.14737804293298       -0.04877385924052
C           -1.81581258267161       -0.18704840613198       -0.04710779144846
O           -3.01417834786781       -0.38150813028103       -0.06965460925318
N           -0.93088026843854       -1.27926389080484       -0.03715870635745
C           -1.44967812706785       -2.62784009458449       -0.06038085935746
H            3.71589234923527        1.26663620896734        1.07142247616509
H            4.01854405291655        1.09432254691050       -0.67532039055891
H            2.67052511738623        2.11316783393212       -0.09195021903815
H            3.50104969251063       -1.96704723408476        0.04331107504967
H           -1.68486254146831        3.08696021936997       -0.02394453556877
H           -2.84078512949422        2.09056990925295       -0.95161451562021
H           -2.89169110492020        2.07253737303897        0.81586531874075
H           -1.14111682976095       -3.17924357975460        0.83111224752286
H           -1.11601417158284       -3.15853643661971       -0.95550633556672
H           -2.53585201159455       -2.55389451986346       -0.07501980574747
H            1.33003683592937       -2.92100841786824       -0.01214609704994
25
 energy: 0.849170789104 xtb: 6.6.1 (8d0f1dd)
C            3.24579898083081        1.20438260574705        0.08582055288724
N            2.37339201404516        0.06747366774992        0.03005987419831
C            2.64712332613213       -1.33089292426942        0.03417632372398
N            1.40550376332520       -1.91819363898920        0.00009362004859
C            0.41128003161107       -1.02542536131297       -0.00883449928622
C            0.96796204434893        0.24580915761677        0.01229603072735
C            0.13972054517031        1.40517703211455       -0.00754422648480
O            0.48083332165436        2.58829836600315       -0.00692295557952
N           -1.26352400744938        1.06003129955474       -0.03066741727217
C           -2.23492175403613        2.14742619251687       -0.04797169376557
C           -1.81437387354143       -0.18431528286676       -0.04717481508172
O           -3.01273761600534       -0.38121942791754       -0.06992059533604
N           -0.92694052007194       -1.27297667885032       -0.03731710921569
C           -1.44216972228004       -2.62330708724404       -0.06107808784641
H            3.71409457309674        1.28275560643770        1.07106455453616
H            4.01948016457858        1.11352719161588       -0.67635560683979
H            2.65809136079436        2.11574198670647       -0.09342996415608
H            3.47132209045943       -2.06769290584221        0.04492684713170
H           -1.69338804023353        3.08934735492974       -0.02277876141913
H           -2.84644966912630        2.09032514270659       -0.95019627502624
H           -2.89701753907081        2.07136252904070        0.81606315760311
H           -1.13228707441622       -3.17459663144059        0.83001604500115
H           -1.10646638302246       -3.15318350685617       -0.95589559187347
H           -2.52864298949223       -2.55405936489633       -0.07620739259040
H            1.33043858631996       -2.91360079258364       -0.01137221094105
25
 energy: 5.656336697143 xtb: 6.6.1 (8d0f1dd)
C            3.24711078315346        1.21090724208324        0.08514835462185
N            2.39080323917667        0.05642822037938        0.02914439081387
C            2.65987351083311       -1.35921832749500        0.03394608805993
N            1.40592630022495       -1.91468805344451       -0.00592740142742
C            0.41581886278753       -1.01872201028241       -0.00935925390052
C            0.98005539196027        0.24913955843172        0.01269928403137
C            0.14319069786514        1.40946831493375       -0.00536646781020
O            0.47623334337507        2.59403388904475       -0.00641595386941
N           -1.26235250214519        1.06219453268067       -0.02985304099109
C           -2.23921665654521        2.14587454286990       -0.04742014160515
C           -1.81284692649862       -0.18227479382786       -0.04682215779485
O           -3.01097162670677       -0.38272406447962       -0.06969972895267
N           -0.92322818252819       -1.26699751716919       -0.03731945136939
C           -1.43537389381804       -2.61846811540998       -0.06170641175185
H            3.71418503118503        1.30076455079855        1.07023988786032
H            4.02227413652271        1.13464045581568       -0.67689434661459
H            2.64545940969518        2.11540938647919       -0.09504357034289
H            3.44017679780257       -2.16795169457981        0.04619272414108
H           -1.70262196445479        3.09041121595436       -0.02194570469148
H           -2.85155493728373        2.08656157991938       -0.94934078997586
H           -2.90252825976110        2.06708298983216        0.81580663802052
H           -1.12416855037386       -3.16940693150721        0.82918458114996
H           -1.09783247324541       -3.14717649491909       -0.95652947878315
H           -2.52197234798345       -2.55145293841858       -0.07714779214134
H            1.33349115139075       -2.90862444665293       -0.01216760182649
25
 energy: 11.503052119138 xtb: 6.6.1 (8d0f1dd)
C            3.24759953640212        1.21930493059451        0.08492234727734
N            2.40560519825028        0.05065125262862        0.02708949425832
C            2.67268599347790       -1.37732444942118        0.01011757219112
N            1.40814345031473       -1.90852370185518       -0.01409086928385
C            0.42030279971359       -1.01131222271984       -0.00933638491934
C            0.99019380070164        0.25391799780308        0.01311857084479
C            0.14430431274481        1.41432068120095       -0.00142994374361
O            0.46898843163295        2.60059114189652       -0.00678803788570
N           -1.26188963713545        1.06552395241544       -0.02907007000053
C           -2.24292299500273        2.14615150592122       -0.04701978085618
C           -1.81092868241694       -0.17986690113274       -0.04614130807950
O           -3.00859141618672       -0.38275117244773       -0.06906058556461
N           -0.91927980005039       -1.26131729499120       -0.03649543046244
C           -1.42753171608665       -2.61470684788057       -0.06121835008591
H            3.71160060161296        1.31691706867383        1.07105983390024
H            4.02552455991093        1.15536799648947       -0.67519897842537
H            2.63389432787290        2.11734737869846       -0.09626310777393
H            3.40635247577004       -2.26172846084031        0.04342388504595
H           -1.70833011746222        3.09160412244176       -0.02217829749161
H           -2.85650745980882        2.08559887244748       -0.94833724727304
H           -2.90679219689345        2.06662482413074        0.81603071449486
H           -1.11556790668043       -3.16484957173882        0.82997041483601
H           -1.08687800026662       -3.14293915219752       -0.95518005439407
H           -2.51434628007558       -2.55200903764756       -0.07814676615035
H            1.33941594502058       -2.90163590505600       -0.01425763624400
25
 energy: 18.572412385605 xtb: 6.6.1 (8d0f1dd)
C            3.24605745372287        1.23083739817144        0.08263990381506
N            2.41247513416844        0.05586675810717        0.02047907750064
C            2.68391134092124       -1.38669444349066       -0.02571376646356
N            1.41170915581530       -1.90005373030377       -0.02098323595883
C            0.42475259110654       -1.00314438542114       -0.00895640434575
C            0.99623265392645        0.26112593162708        0.01487763657423
C            0.14326216369776        1.42071166971293        0.00427765986683
O            0.46241334249369        2.60785462526562       -0.00406212680987
N           -1.26133515916340        1.06967926499468       -0.02724381870755
C           -2.24790029703977        2.14595761633067       -0.04665425147394
C           -1.80796039488769       -0.17711113171422       -0.04516145765425
O           -3.00493007972145       -0.38269701006879       -0.06830805165051
N           -0.91464609799412       -1.25534858993244       -0.03554180559767
C           -1.42077756930863       -2.60970561328884       -0.06126441813843
H            3.70893682824027        1.33301931868556        1.06962871272340
H            4.02699476334556        1.17654657696289       -0.67562250917549
H            2.62094250622934        2.12137070188112       -0.09918315768520
H            3.37622600772605       -2.35054260864510        0.04655589925726
H           -1.71718246890865        3.09339122184821       -0.02163653829589
H           -2.86100142512288        2.08237149061303       -0.94825875151288
H           -2.91359870152123        2.06369512262672        0.81494343619785
H           -1.10913296575465       -3.15924956634078        0.83043799074131
H           -1.07872883902611       -3.13779722694938       -0.95484489586940
H           -2.50762688885370       -2.54771699905515       -0.07931424594378
H            1.34718880432948       -2.89288983336987       -0.01775337702396
25
 energy: 27.689711365545 xtb: 6.6.1 (8d0f1dd)
C            3.24106830407733        1.24264786279080        0.08660070431316
N            2.41554466998766        0.06369026925223        0.02397301685055
C            2.69526730919155       -1.38640252776641       -0.03425424556261
N            1.41827253381847       -1.89012435140781       -0.02603282147557
C            0.42972712681480       -0.99469181699255       -0.00903684802538
C            0.99880153471886        0.26963195688580        0.02054017034205
C            0.14211447883108        1.42892943616150        0.00257225553419
O            0.45940836729573        2.61588823380573       -0.01057849869692
N           -1.26028165886229        1.07498915715917       -0.02915018248643
C           -2.25364243591615        2.14601583044141       -0.04778469348864
C           -1.80447265476319       -0.17428862251274       -0.04427169418286
O           -3.00067516218766       -0.38127062542640       -0.06697642999942
N           -0.90905295798256       -1.24884093095330       -0.03591333211845
C           -1.41173913321121       -2.60381761141953       -0.06011313959758
H            3.70789005904084        1.35248021553731        1.07150772386644
H            4.02011533165688        1.19430486379714       -0.67440066057355
H            2.60419307423350        2.12410565111222       -0.09626852270048
H            3.35689104180098       -2.44450932520074        0.05659152199256
H           -1.73043063860118        3.09761572378467       -0.02172266529373
H           -2.86812168329672        2.07871617550101       -0.94826495229827
H           -2.91909310435715        2.05681198360060        0.81337000875396
H           -1.09072587166548       -3.15140284402341        0.82938552969163
H           -1.07457086386150       -3.12988178851138       -0.95674308766484
H           -2.49876408989116       -2.54310005613624       -0.06931412565895
H            1.35670485913386       -2.88322225674704       -0.02693022140075
25
 energy: 49.311433935619 xtb: 6.6.1 (8d0f1dd)
C            3.22824774479495        1.27635023114314        0.07936764313707
N            2.36586632276734        0.12024143006742        0.01647008177061
C            2.67246469656680       -1.20619858446022       -0.02868493407702
N            1.46685541236743       -1.83210624673397       -0.02369869598387
C            0.42862247023167       -0.96821434872992       -0.00822492570316
C            0.97561931173110        0.29911323183892        0.02302761297730
C            0.10290878395691        1.45660994384391        0.00305561957428
O            0.43184956678182        2.62479872694112       -0.01065839577452
N           -1.26474859321737        1.08706058833500       -0.02688109702785
C           -2.26369198495511        2.15172548952212       -0.04466913184087
C           -1.80531743561256       -0.18314559773000       -0.04339477974265
O           -2.99854618556881       -0.38327326563769       -0.06658588655847
N           -0.90360771938392       -1.24166436623652       -0.03526897499682
C           -1.40489385652542       -2.60263397313546       -0.06229635244819
H            3.69406692970961        1.36217756275240        1.06546687200646
H            4.01718460868638        1.20753372868417       -0.66999227526183
H            2.61095408404358        2.16424947303188       -0.10456689657533
H            3.42200609297987       -2.93627527175260        0.09214765627577
H           -1.73531398867772        3.10052810947506       -0.01927908520650
H           -2.87654606431922        2.08344141069569       -0.94487685097566
H           -2.92623679150298        2.06185754111482        0.81748300794720
H           -1.09135295806701       -3.15019266899033        0.82845483053109
H           -1.05985976959674       -3.12681265405971       -0.95547018316395
H           -2.49255414191252       -2.54939352426148       -0.08119729311663
H            1.42647083711217       -2.83731887490941       -0.01691029452614
25
 energy: 49.026106652084 xtb: 6.6.1 (8d0f1dd)
C            3.22463858754837        1.29166610020590        0.08186448841481
N            2.36308734876427        0.13559700235182        0.02209387793637
C            2.67761220452558       -1.18754068149304       -0.00864583560216
N            1.47551397216660       -1.82083646180497       -0.01920727635036
C            0.43215754508913       -0.96073851547202       -0.00939503771817
C            0.97324120799251        0.30908580692761        0.02126654692052
C            0.09722308153342        1.46316996896826       -0.00175414428849
O            0.42475832369164        2.63124371717569       -0.01280983962993
N           -1.26814338990019        1.09067701425349       -0.02694971118312
C           -2.27005724269282        2.15224987691064       -0.04460837315883
C           -1.80417296466891       -0.18291713977895       -0.04355405753601
O           -2.99684951190284       -0.38573753402130       -0.06669873107150
N           -0.89926065317621       -1.23716145949526       -0.03525965281128
C           -1.39734188972286       -2.59881113282441       -0.06197326586759
H            3.69180450155426        1.38073864255408        1.06688917932775
H            4.01381984305591        1.22484568726863       -0.66824247867702
H            2.60586737139400        2.17844418763689       -0.10347725328587
H            3.40067815061350       -3.05677448682312        0.10651432167200
H           -1.74572288825199        3.10369869644124       -0.01925287973696
H           -2.88335069508858        2.08013772569442       -0.94417633127913
H           -2.93196934261893        2.05744973806358        0.81734317374448
H           -1.07977206865942       -3.14428135024614        0.82844259297899
H           -1.05210893133572       -3.12102077668039       -0.95608438126715
H           -2.48524966241278       -2.54887574548060       -0.07861312641851
H            1.44289677300410       -2.82761742293735       -0.01898769693121
25
 energy: 49.171610270999 xtb: 6.6.1 (8d0f1dd)
C            3.21983488668705        1.30774115847852        0.08355343084801
N            2.35724707868939        0.15282341926772        0.02600037407685
C            2.68171138952542       -1.16538630601713        0.00579757830570
N            1.48497791576981       -1.81013965175339       -0.01417010080094
C            0.43536924909236       -0.95477448622708       -0.01002339500196
C            0.96753024339968        0.31762974742225        0.01904627994220
C            0.08967627463068        1.46859636759459       -0.00658377567460
O            0.41526661956791        2.63732157109467       -0.01411265386324
N           -1.27272043602037        1.09332855608070       -0.02832914534493
C           -2.27646079324954        2.15229886619688       -0.04593298571939
C           -1.80333079006457       -0.18354410401832       -0.04404656412208
O           -2.99531718773360       -0.38994013480501       -0.06637852319883
N           -0.89527223554557       -1.23375125756509       -0.03392836982985
C           -1.39018616419632       -2.59585145686370       -0.06162590122532
H            3.68734129859584        1.39770434741800        1.06800835204073
H            4.00955121537469        1.24303981484425       -0.66643881326582
H            2.60418753557187        2.19572265158436       -0.10381457628661
H            3.38035991971327       -3.19027322302763        0.11022542888088
H           -1.75431347888580        3.10574615798079       -0.01929603119269
H           -2.88873162702982        2.07657791601545       -0.94590567637150
H           -2.93752707452340        2.05370908015943        0.81626184668485
H           -1.07055848295092       -3.13953599472593        0.82886049826593
H           -1.04356270940172       -3.11594085058076       -0.95626158758055
H           -2.47828313922193       -2.54907562120978       -0.07798889750128
H            1.46112893987458       -2.81848503281628       -0.01874610434011
25
 energy: 49.578427146502 xtb: 6.6.1 (8d0f1dd)
C            3.21418889825140        1.32363319258881        0.08435093503693
N            2.34907950024615        0.17119944368707        0.02929525836902
C            2.68550038204081       -1.14023668820810        0.01487017833794
N            1.49542554668609       -1.79955725235080       -0.00918120618155
C            0.43834875987051       -0.94976349171242       -0.00920376949126
C            0.95965026192188        0.32532906360251        0.01759210426892
C            0.08090554888424        1.47325403612259       -0.00966263875343
O            0.40480363201721        2.64278591367981       -0.01457257691400
N           -1.27789664282688        1.09485241330839       -0.02889225095846
C           -2.28315008454053        2.15283105701151       -0.04683945097719
C           -1.80314373820805       -0.18454770848543       -0.04465291808493
O           -2.99501454886642       -0.39186125048976       -0.06699977820036
N           -0.89160721532880       -1.23104273824671       -0.03319640721119
C           -1.38286248101577       -2.59392301560877       -0.06091406233418
H            3.68048412877787        1.41363892505090        1.06889901853775
H            4.00501525168250        1.25941844463715       -0.66421037689485
H            2.60280836253650        2.21266211715261       -0.10692563274652
H            3.36550402953974       -3.32938943572613        0.11014199621821
H           -1.76202167195018        3.10747394817226       -0.01940493230390
H           -2.89541297156924        2.07552274791802       -0.94689427379139
H           -2.94436318257901        2.05291187110207        0.81494261241843
H           -1.06115712297499       -3.13552044807537        0.82954695367347
H           -1.03437583640946       -3.11155784005692       -0.95612532495562
H           -2.47120075165524       -2.55109921285083       -0.07689053598755
H            1.48051051000342       -2.80940266612568       -0.01740643936379
25
 energy: 50.058746261632 xtb: 6.6.1 (8d0f1dd)
C            3.20808016224876        1.33947040296451        0.08461260271447
N            2.33963832104045        0.19028963753812        0.03128909382567
C            2.68871456941901       -1.11361064567274        0.01988367368445
N            1.50641180794136       -1.78917544226004       -0.00582927685073
C            0.44069689148240       -0.94588153151660       -0.00817529711800
C            0.95106645127175        0.33199701588446        0.01562846890054
C            0.07137513367933        1.47675560387342       -0.01003186627517
O            0.39393890550309        2.64703397455573       -0.01422758986499
N           -1.28423682749052        1.09597412169851       -0.02968995548529
C           -2.28956268723758        2.15323412503173       -0.04518779760544
C           -1.80410324259862       -0.18542488098827       -0.04577873999008
O           -2.99613130003803       -0.39201788335423       -0.06851656015097
N           -0.88900945414401       -1.22911531823232       -0.03304873473573
C           -1.37637121160064       -2.59236638036993       -0.05957972725010
H            3.67248064063194        1.42880291402482        1.06957240197296
H            3.99880070946110        1.27524538572494       -0.66267219684655
H            2.60360149196354        2.23045073211240       -0.10972289002655
H            3.36576956225349       -3.47196650920892        0.09882788056299
H           -1.76907333298157        3.10836116714171       -0.01899211216988
H           -2.90096361904052        2.07572570790713       -0.94480200038318
H           -2.94989460937344        2.05168939975972        0.81709733704950
H           -1.05201153411435       -3.13168990343475        0.83074221209531
H           -1.02616424094184       -3.10741103781122       -0.95558574485520
H           -2.46487557860077       -2.55288644876104       -0.07442069418831
H            1.49967391717404       -2.80013776829700       -0.01705250713933
25
 energy: 50.559253057102 xtb: 6.6.1 (8d0f1dd)
C            3.20152945054068        1.35483623739952        0.08486494531799
N            2.32929995440847        0.20937513092590        0.03252700084325
C            2.69123853648642       -1.08662843041408        0.02374240811551
N            1.51727983257621       -1.77900537915159       -0.00202310818025
C            0.44160650376683       -0.94344749883737       -0.00462351571127
C            0.94154049331590        0.33794926540801        0.01498100194252
C            0.06167837445419        1.47973437900568       -0.00842093556802
O            0.38261500841475        2.65075832972408       -0.01316167599329
N           -1.29085984390086        1.09668016923985       -0.02989636537564
C           -2.29481553322633        2.15329645026912       -0.04593518225142
C           -1.80566580794873       -0.18550340068739       -0.04568593705685
O           -2.99734823702924       -0.39483714467142       -0.06846573296049
N           -0.88758419594069       -1.22956850902575       -0.03401411827707
C           -1.36968028385104       -2.59231887024107       -0.05862130343478
H            3.66518348057518        1.44363935064789        1.06980253246541
H            3.99017285024582        1.29083378908463       -0.66217183746387
H            2.60637721290936        2.24879094146560       -0.11096746982297
H            3.38024713890687       -3.61250196936855        0.07569268388525
H           -1.77543137286479        3.10924955647422       -0.02043345215362
H           -2.90367397597130        2.07752984471757       -0.94754551717952
H           -2.95377426772208        2.05340866342352        0.81681970576771
H           -1.04325031363336       -3.12824083933058        0.83320320622079
H           -1.01685273068305       -3.10520414258310       -0.95389045361506
H           -2.45807214440917       -2.55533181448260       -0.07414900403439
H            1.51855249814432       -2.79059471383375       -0.01472719740630
25
 energy: 51.027711526000 xtb: 6.6.1 (8d0f1dd)
C            3.19691065342845        1.36512152563784        0.08190167572552
N            2.31695007766894        0.22617943204209        0.03412833177013
C            2.69202979382467       -1.06179305056146        0.02911169254743
N            1.52558553037663       -1.77123334150404        0.00392538567449
C            0.44098334592736       -0.94480004986941       -0.00655402994546
C            0.93045592474386        0.34211636758912        0.01368585501310
C            0.05144817761619        1.48169578442081       -0.00809081068884
O            0.37269351923703        2.65276175519619       -0.01219352400628
N           -1.29867013567327        1.09772398227243       -0.03026418312847
C           -2.30170397704570        2.15455407565294       -0.04590373703585
C           -1.80835307612265       -0.18563211075199       -0.04610265563730
O           -2.99943687503003       -0.39868863547093       -0.06822589093596
N           -0.88905957587009       -1.23131275412747       -0.03652644139578
C           -1.37005933519644       -2.59451229048640       -0.06094410743529
H            3.65697646808270        1.45771334748915        1.06807019265783
H            3.98744390147565        1.28043969092763       -0.66220424996090
H            2.61331210878224        2.26442532645491       -0.11215747488775
H            3.43228758014374       -3.74578130792264        0.05109338719220
H           -1.78315302384963        3.11100982391951       -0.02075400943667
H           -2.90993075710260        2.08070312159177       -0.94783978447460
H           -2.95828059890856        2.05674208707433        0.81883585928217
H           -1.03780659882264       -3.12705847045276        0.83107569881493
H           -1.01111209187339       -3.10403109786991       -0.95556559097845
H           -2.45832719516520       -2.55719726311332       -0.07685069497800
H            1.53318820814696       -2.78201595492311       -0.01041492761837
25
 energy: 51.511342662385 xtb: 6.6.1 (8d0f1dd)
C            3.19224087969932        1.37184408937546        0.08072319484902
N            2.30367055385669        0.24004316214183        0.03551529872952
C            2.68882872912147       -1.04101268570751        0.03394718318397
N            1.52380999271895       -1.76489337337582        0.00563804596288
C            0.43739297402602       -0.94449506142668       -0.00837423394237
C            0.91917660368998        0.34648353266292        0.01267973158576
C            0.04336503983357        1.48459744893727       -0.00945453446479
O            0.37321720576132        2.65409307298191       -0.01224814263485
N           -1.30542841949945        1.10026645178315       -0.03143721818546
C           -2.30825441326148        2.15695984658619       -0.04603077532503
C           -1.81219293631462       -0.18451186890926       -0.04615666422589
O           -3.00312375028369       -0.39905257573336       -0.06772112831311
N           -0.89291587583807       -1.23209241163439       -0.03765297672183
C           -1.37585956031549       -2.59703878050776       -0.06216484158712
H            3.65249408169124        1.45763898528373        1.06639001036483
H            3.98311908884254        1.26376764284087       -0.66178598110922
H            2.62137217757611        2.27828382656900       -0.11198500529020
H            3.50926406479373       -3.86557332847009        0.03192913064801
H           -1.79077946612364        3.11369262868250       -0.02031392247528
H           -2.91600198404924        2.08326478464565       -0.94810470225224
H           -2.96410713155084        2.05952616841662        0.81933219217869
H           -1.04461917432489       -3.13316300706539        0.82838831516179
H           -1.01875334818442       -3.10914024323489       -0.95706108216269
H           -2.46435686292248       -2.55696961237206       -0.07752750340609
H            1.53434239187643       -2.77321509750151       -0.00528014628872
25
 energy: 51.809221522903 xtb: 6.6.1 (8d0f1dd)
C            3.18647644242766        1.37651431839543        0.08378155008312
N            2.29272832402888        0.24740019492294        0.03857956231778
C            2.67898800210357       -1.03365921532821        0.03618589511761
N            1.51396103966965       -1.76189341188385        0.00564150316216
C            0.42905603335126       -0.94129818060063       -0.00793450670760
C            0.91019132128155        0.35035849291978        0.01363138225688
C            0.04044877934289        1.48837037717457       -0.00794842316157
O            0.36782867108022        2.65852647824344       -0.01094880837203
N           -1.30911539740807        1.10141114025599       -0.03107199492220
C           -2.31107241923540        2.15883637589536       -0.04615235925196
C           -1.81702583654484       -0.18255966054211       -0.04646380598839
O           -3.00806752858529       -0.39640184368630       -0.06832368950358
N           -0.89960576072920       -1.23159415060920       -0.03668784202652
C           -1.38243936625414       -2.59728891670507       -0.06214680910309
H            3.65555393356060        1.44500089829316        1.06688292102354
H            3.97191983658464        1.25340620402553       -0.66190794805976
H            2.62339014372548        2.28905353283345       -0.10860033989185
H            3.64093369635295       -3.90790290806601        0.03239426779401
H           -1.78966772266112        3.11318289223273       -0.01946646615017
H           -2.91626520915764        2.08473830898927       -0.94921946644806
H           -2.96619764075706        2.06134340371204        0.81891140346161
H           -1.05351960626857       -3.13667203931601        0.82799032525672
H           -1.02686572551496       -3.11339803951780       -0.95595033386321
H           -2.47090875500239       -2.55634162436566       -0.07818568269847
H            1.51620230013283       -2.77007229453882       -0.00577322399705
25
 energy: 51.936567078427 xtb: 6.6.1 (8d0f1dd)
C            3.18358447010080        1.37148252835945        0.08415237053427
N            2.28798140609416        0.24388054947875        0.03804936781358
C            2.66392991778606       -1.04141020469261        0.03202477626256
N            1.50266925516631       -1.76517128676563        0.00346776279878
C            0.42136525816996       -0.94068463523408       -0.00745669748640
C            0.90744233105930        0.34966892493904        0.01503487513997
C            0.03801630904951        1.48911324401510       -0.00800917118345
O            0.36678539073066        2.65901976329192       -0.01243680603945
N           -1.31012574071468        1.10200100663358       -0.03080375998829
C           -2.31100813714122        2.15978926961640       -0.04624971984975
C           -1.81968758129296       -0.18239070402307       -0.04653752210519
O           -3.01082866186936       -0.39429598282879       -0.06853049578419
N           -0.90554350527834       -1.23226388639967       -0.03739256537263
C           -1.38823031620266       -2.59727763861622       -0.06200533693500
H            3.65286043279685        1.44303718601050        1.06691458276453
H            3.96793257632982        1.25023153618365       -0.66185755047054
H            2.62244467913740        2.28463953895467       -0.10874260951008
H            3.77540262304631       -3.89145438763444        0.04037991326840
H           -1.78895647172572        3.11397404052878       -0.01971041671424
H           -2.91705978054975        2.08571875290564       -0.94888774423007
H           -2.96673692720253        2.06190320556571        0.81849461840864
H           -1.05957370540019       -3.13594365395249        0.82844371947987
H           -1.03335648070074       -3.11309083986859       -0.95602659129309
H           -2.47670346220101       -2.55823497063431       -0.07762353083297
H            1.50961042578446       -2.77321256708922       -0.00765755648068
