25
 energy: 0.000000000000 xtb: 6.6.1 (8d0f1dd)
C            3.23720163006194        1.16630919979326        0.08434469647475
N            2.29877817382611        0.07527477071623        0.03981603040599
C            2.58028210190900       -1.21425402444508        0.03006176031096
N            1.43813958087363       -1.93419271955128        0.00098261760884
C            0.39035688448383       -1.05887472636071       -0.00790371836672
C            0.93510056364412        0.21347819449412        0.01709077491437
C            0.09450143893243        1.40504303904423       -0.00410947031874
O            0.49712751527797        2.54126714362870       -0.00342325688240
N           -1.25076640035757        1.06271879480407       -0.03085478223738
C           -2.21907211982101        2.15522099834493       -0.05001256985998
C           -1.81739487048744       -0.20012725993278       -0.04692818574614
O           -2.99983886758376       -0.37846417018721       -0.07008878229737
N           -0.92618586207120       -1.30210215599479       -0.03682761578324
C           -1.46982264913417       -2.64643102187190       -0.06029820460571
H            3.71247264356769        1.21471455160235        1.06488849150277
H            4.00791497605742        1.03430808813993       -0.67357694370751
H            2.69910007168542        2.09770118228144       -0.09130154882931
H            3.56654120610678       -1.63682992603973        0.04233140067262
H           -1.67107961066214        3.09322851271934       -0.02552706933167
H           -2.82428953597071        2.09428624779827       -0.95318082946668
H           -2.87644029173232        2.07745725625962        0.81450067533302
H           -1.17061996399332       -3.19584890659852        0.83242232437030
H           -1.14560257411436       -3.17511610292205       -0.95688275822323
H           -2.55549792440841       -2.55659984320617       -0.07459039797972
H            1.38130855184625       -2.94313852034425       -0.01389874181052
25
 energy: -2.570743008691 xtb: 6.6.1 (8d0f1dd)
C            3.24018082253088        1.19740734760422        0.08565967660364
N            2.33257876415046        0.08559556914256        0.03774989605069
C            2.61283496121814       -1.26884608529225        0.03092470564690
N            1.42566905183312       -1.93045716044294        0.00093623106005
C            0.40410195522945       -1.03923199506360       -0.00819531860753
C            0.94602201606246        0.23432894079099        0.01507299294874
C            0.10062124027915        1.40829868113438       -0.00551678563323
O            0.48514114930001        2.57785025658149       -0.00566448354353
N           -1.26326292187477        1.06112854927439       -0.03080616048848
C           -2.23638433106005        2.14986561826101       -0.04893785359669
C           -1.81997158393260       -0.19272267909287       -0.04699434691592
O           -3.01511323552641       -0.38240810271042       -0.06986765420576
N           -0.92513428021660       -1.28681089673885       -0.03705664089766
C           -1.45293015824095       -2.63321188847113       -0.06066719528968
H            3.71057447711855        1.26540112751321        1.06916946706568
H            4.01086845918107        1.08342245051481       -0.67505413809204
H            2.68077481066992        2.11954886793072       -0.09307060878435
H            3.54875861558716       -1.88809225976149        0.04350405148136
H           -1.69087252008536        3.09053883615742       -0.02410777377130
H           -2.84426919270407        2.09127918211025       -0.95187458804765
H           -2.89582624631118        2.07307931479235        0.81548860481819
H           -1.14438428440237       -3.18199596883792        0.83123206399084
H           -1.11912725792773       -3.16077261268029       -0.95639342163104
H           -2.53896391602349       -2.55413345988410       -0.07529944066737
H            1.36032827308146       -2.93003303065995       -0.01319738334655
25
 energy: 14.530371658648 xtb: 6.6.1 (8d0f1dd)
C            3.23997375095474        1.23767248120558        0.08666751520294
N            2.37717808677172        0.09112820786049        0.03387066119737
C            2.65427874510552       -1.32736108971031        0.03226130592857
N            1.40979500162889       -1.91094187235699        0.00141299867066
C            0.41825195544186       -1.01216672875715       -0.00826579079764
C            0.96323167250125        0.26036266626452        0.01306831160694
C            0.11296766219738        1.40923484662784       -0.00678471062608
O            0.45633375358197        2.60558108235942       -0.00892427483930
N           -1.27648330162610        1.06217183168422       -0.03047650765534
C           -2.25538602984344        2.14661782783388       -0.04739538297505
C           -1.81647173694467       -0.18301039217888       -0.04679394342316
O           -3.01667926727677       -0.38728418556820       -0.06933703508143
N           -0.92355084966843       -1.26493781782790       -0.03718223195730
C           -1.42843677370706       -2.61588011433326       -0.06121973143599
H            3.70509155671036        1.33759405004363        1.07231824220436
H            4.01562553486510        1.15677188398106       -0.67390988684783
H            2.65064299377013        2.14642644875389       -0.09644033358963
H            3.48935483508667       -2.24703264858888        0.04400832018777
H           -1.71850383579005        3.09303840191209       -0.02207470369285
H           -2.86760410829689        2.08700933963297       -0.94911780704616
H           -2.91833131590878        2.06673384469678        0.81586627191879
H           -1.10954389865902       -3.16319569577966        0.82987251421742
H           -1.08378651463860       -3.14122159813466       -0.95611114396590
H           -2.51520667603823       -2.55293004692808       -0.07634312103599
H            1.34947342771865       -2.90535212052040       -0.01193564001788
25
 energy: 38.062041824436 xtb: 6.6.1 (8d0f1dd)
C            3.23184817017788        1.26389783203826        0.08648183633860
N            2.40589732742550        0.07919949950839        0.03100952971035
C            2.68045540955853       -1.38096569843939        0.03361737139839
N            1.40265516001865       -1.90347863190666        0.00246588582543
C            0.42687246404100       -0.99646068510605       -0.00807627554272
C            0.97981139792803        0.27283581591049        0.01228032255006
C            0.12525991994051        1.41838785760418       -0.00794209109084
O            0.43839833651172        2.62029807357277       -0.01207432686213
N           -1.27984321051602        1.07336454430869       -0.03024635469932
C           -2.26928792127112        2.14935743317637       -0.04578657879405
C           -1.81150431897555       -0.17327620050007       -0.04646998793539
O           -3.01090775109610       -0.38696869862842       -0.06869631400691
N           -0.91665635956462       -1.24640845920195       -0.03714758385197
C           -1.40407206017873       -2.60116513426397       -0.06180638462100
H            3.69152173526072        1.40210549756468        1.07244699407837
H            4.01708198485632        1.22695984013051       -0.67036556851685
H            2.61471501958016        2.15798339605792       -0.10133728054025
H            3.42903855401340       -2.52241506601995        0.04368901673135
H           -1.74710347481241        3.10320058016976       -0.01990824460212
H           -2.88508664601958        2.08353889567927       -0.94572976127843
H           -2.93468593486681        2.06093622165622        0.81596116816679
H           -1.07603506881182       -3.14279993087190        0.82943861315377
H           -1.04958249241102       -3.11996867989732       -0.95670744932465
H           -2.49147883887942       -2.55164957169132       -0.07746490992522
H            1.34490326602697       -2.89748012867848       -0.01059773021397
25
 energy: 53.551078366615 xtb: 6.6.1 (8d0f1dd)
C            3.22380442608598        1.27762932617639        0.08603110609758
N            2.41494912004545        0.07585264811135        0.02964572556329
C            2.69151964394203       -1.40277991732871        0.03338909424433
N            1.40532879627794       -1.89758385348062        0.00295960497496
C            0.43047984857866       -0.98780759296462       -0.00773567925051
C            0.98805486732150        0.27935261632025        0.01281895105902
C            0.12986389684477        1.42961446418600       -0.00803465358989
O            0.42953897296436        2.62676565915985       -0.01382909218212
N           -1.27852900303009        1.08237765901647       -0.02998178482669
C           -2.27499362752785        2.15228620367433       -0.04505064340458
C           -1.80923441472959       -0.16890571630602       -0.04608495271177
O           -3.00594755481861       -0.38602500157484       -0.06822880334513
N           -0.90987872775986       -1.23692640330616       -0.03680729069067
C           -1.39040576885061       -2.59462667824008       -0.06200316482992
H            3.67718182403672        1.42921034528149        1.07179103511998
H            4.01146600983923        1.25933399648179       -0.66739459771417
H            2.59470840843621        2.16250108644218       -0.10558134684683
H            3.40202946981855       -2.67352174370529        0.04392883652204
H           -1.76327357647751        3.11097431987238       -0.01879271861402
H           -2.89150012009939        2.08121504128085       -0.94443770210525
H           -2.94061379618531        2.05730483357837        0.81621869055435
H           -1.05892184856089       -3.13259158875229        0.82940338130207
H           -1.03198616738539       -3.10918523881648       -0.95699778787772
H           -2.47808557865160       -2.55302715608185       -0.07800659630209
H            1.34665956782151       -2.89240870685266       -0.01018571499895
25
 energy: 62.835233595430 xtb: 6.6.1 (8d0f1dd)
C            3.22161265647067        1.28813432335078        0.08629781017658
N            2.41487227925208        0.08475290203971        0.02693081552481
C            2.69672684416622       -1.40063634925395        0.02478348292664
N            1.41199022527139       -1.88745733527159       -0.00008834089407
C            0.43144525432863       -0.98116051128222       -0.00836689656060
C            0.99034388409333        0.28571347753398        0.01391254660255
C            0.12794795448255        1.43862472666897       -0.00584964737306
O            0.41998552932353        2.63151029904357       -0.01399685109192
N           -1.27797475437139        1.08502862284011       -0.02936787972882
C           -2.27753689094705        2.15212627591208       -0.04531930004076
C           -1.80981654858280       -0.16988785271032       -0.04548401316535
O           -3.00406481940949       -0.38769433513167       -0.06771035272080
N           -0.90579737728867       -1.23391694535949       -0.03603613265595
C           -1.38587627638727       -2.59340223529921       -0.06135194459319
H            3.67202544030435        1.43760704659582        1.07162247313968
H            4.00811785843417        1.27055788844974       -0.66554554348703
H            2.59306525081003        2.17055079092744       -0.10661501486170
H            3.39514854586641       -2.77404996580800        0.05212752007649
H           -1.76958006980547        3.11215066105279       -0.01906580249596
H           -2.89344846014376        2.07926674401568       -0.94493343195563
H           -2.94293308977779        2.05549672927747        0.81587438153991
H           -1.05470229046511       -3.13031403979257        0.83009544129306
H           -1.02794590896196       -3.10685883745830       -0.95639894288317
H           -2.47360166290263       -2.55396661464008       -0.07724063011774
H            1.35221109417622       -2.88314686352872       -0.01123985050668
25
 energy: 66.600666597128 xtb: 6.6.1 (8d0f1dd)
C            3.21294520483948        1.31686802863333        0.08815303571362
N            2.41127880400143        0.11150771394203        0.01619594273690
C            2.71508733392529       -1.38695855650848       -0.03181516260571
N            1.43498439663630       -1.85471027786001       -0.01581057928906
C            0.43654825203524       -0.96237876785722       -0.01072947499923
C            0.99164975930987        0.30532819178730        0.02047336108806
C            0.12068698797240        1.45789319793843        0.00778298478131
O            0.39565368189784        2.64279818268910       -0.01320051389263
N           -1.28190555742469        1.09183289632180       -0.02773353177550
C           -2.28578977302436        2.15341302904540       -0.04739647562887
C           -1.81028396879661       -0.17181106057678       -0.04357730036458
O           -3.00050892146528       -0.39335904469531       -0.06679127399445
N           -0.89753694134382       -1.22666950079983       -0.03229249107517
C           -1.37528300123193       -2.59031053080841       -0.05849071241207
H            3.66282127773157        1.45533052623755        1.07076814323192
H            3.99661139740902        1.29250109498775       -0.66218207009423
H            2.58855565992959        2.19668873050492       -0.10634959634401
H            3.37333073409743       -3.05323926870830        0.10188362754371
H           -1.78241259380476        3.11487134392259       -0.02111022568765
H           -2.90018182975057        2.07631756084138       -0.94749762516386
H           -2.95010258084272        2.05334325484424        0.81416328716806
H           -1.04543966839239       -3.12633032905562        0.83285801298297
H           -1.01907188758620       -3.10307465032784       -0.95339887744461
H           -2.46364384922140       -2.55574242432890       -0.07410894671302
H            1.38422175103547       -2.85508073799709       -0.01275964161460
25
 energy: 66.909645882103 xtb: 6.6.1 (8d0f1dd)
C            3.20275151617598        1.34676712093976        0.08452869964188
N            2.39533746104651        0.14866074022915        0.01993913207100
C            2.72993903613157       -1.34699306630802       -0.03271536643372
N            1.46641856462939       -1.81545322697658       -0.01784417703709
C            0.44049867029645       -0.94266677299879       -0.00789834422443
C            0.98717689732906        0.32479490970777        0.02389853647731
C            0.10637820490556        1.47751549871113        0.00302235420060
O            0.37164398455773        2.64964500143098       -0.01288928382741
N           -1.28562369148624        1.09912834866377       -0.02835038062948
C           -2.29393448132553        2.15497804291517       -0.04600769449176
C           -1.80996045644918       -0.17566071013781       -0.04321848631739
O           -2.99700432132910       -0.39810156080464       -0.06633673405280
N           -0.88874116465728       -1.22125841556961       -0.03162130384534
C           -1.36658016465865       -2.58870954574744       -0.05918762853282
H            3.65246368518347        1.46854080293955        1.06696422204593
H            3.98797398264825        1.30345040989335       -0.66017188828406
H            2.58992667632309        2.22783970478335       -0.11216992268900
H            3.35312914663273       -3.36042405335189        0.11124520042173
H           -1.79398389992680        3.11769798819240       -0.02013293667794
H           -2.90679635168097        2.07440340198706       -0.94629110908247
H           -2.95625994498080        2.05103355918301        0.81614217854340
H           -1.03861135037542       -3.12476197971832        0.83165645265786
H           -1.01194267926929       -3.10074908182893       -0.95394995165418
H           -2.45577813755355       -2.55722784905352       -0.07494213692540
H            1.43379348576923       -2.82342066490887       -0.01663553520712
25
 energy: 58.289195821399 xtb: 6.6.1 (8d0f1dd)
C            3.19448731084504        1.36191687647731        0.07727576151101
N            2.33959675878982        0.20606981594972        0.03359526377005
C            2.71830424544125       -1.21334397876784        0.00980442372191
N            1.51310536542968       -1.77908521294635       -0.00734033966912
C            0.43789763609421       -0.93618942081043       -0.00140100002606
C            0.96487795046147        0.33241634205476        0.02178318211995
C            0.07774672105426        1.48731689864056       -0.01290812995099
O            0.37016838443218        2.64830923181142       -0.01203766781288
N           -1.28482814067697        1.09959136934640       -0.02945194217659
C           -2.29508905200840        2.15383288874264       -0.04323501544380
C           -1.80872209823470       -0.18511742690010       -0.04449700961898
O           -2.99727125540370       -0.39534476589418       -0.06725686913195
N           -0.88714572432645       -1.22924232046779       -0.03401974692019
C           -1.37251317757612       -2.59548493151764       -0.06225254125421
H            3.65190894526681        1.45560085530523        1.06470626257764
H            3.98860914611809        1.27896096530178       -0.66259836459257
H            2.60224689140485        2.25272410210360       -0.11660401762925
H            3.37495150481641       -3.59950671799219        0.08073841083464
H           -1.79156938969597        3.11618197996795       -0.01752663993504
H           -2.90612653415240        2.07542787353423       -0.94358672890847
H           -2.95559966639309        2.05126613862331        0.81886826642826
H           -1.04462813973440       -3.13222294176385        0.82823367029274
H           -1.01772891239878       -3.10702810299257       -0.95741916977388
H           -2.46197151890457       -2.55712310871140       -0.07821221314816
H            1.50150741728769       -2.80089780692252       -0.01762394911675
25
 energy: 52.574127951366 xtb: 6.6.1 (8d0f1dd)
C            3.19095636393644        1.36744730729139        0.07970027407434
N            2.29582482874997        0.24238929976782        0.03624734025822
C            2.70498714853264       -1.06595258072766        0.03039071141989
N            1.54209241173228       -1.76265377168162       -0.00091316683160
C            0.43396585277721       -0.94044109061408       -0.00495849759891
C            0.94274846768896        0.33292411892657        0.01610340836055
C            0.04921158202543        1.48768420455751       -0.00795357246849
O            0.37775538717689        2.65124969325411       -0.00990552729000
N           -1.28610246187436        1.09872588014564       -0.02769064274744
C           -2.29859032073538        2.15279494360205       -0.04585964347052
C           -1.80746023085840       -0.19185546131887       -0.04584332916858
O           -2.99914139410347       -0.39086661749096       -0.06866105690556
N           -0.89178640953327       -1.23686824879759       -0.03772897676192
C           -1.38069552572008       -2.60068531032339       -0.06163170383971
H            3.65926726831577        1.44477712866094        1.06726906411953
H            3.98290613932679        1.25751218334875       -0.66333281924123
H            2.61803017664415        2.27280120109016       -0.11010159463650
H            3.44573203906573       -3.77947843578904        0.04684340487898
H           -1.78960794908176        3.11404520139126       -0.01907551457441
H           -2.90712952283913        2.07689733669570       -0.94744664282246
H           -2.95820858647564        2.05308684060450        0.81612499132828
H           -1.05092506051660       -3.13729165326747        0.82894953600371
H           -1.02561625509345       -3.11395727486226       -0.95631517833296
H           -2.46936112940673       -2.55777049499628       -0.07676405041042
H            1.53336184820216       -2.78548579729513       -0.01041291719551
25
 energy: 52.421793009423 xtb: 6.6.1 (8d0f1dd)
C            3.18835279374302        1.37491316427296        0.08337228823238
N            2.29116309300382        0.24900358626220        0.03918533465725
C            2.70730585415517       -1.01444754998452        0.03865849172274
N            1.54867375303900       -1.76035388100182        0.00500183125958
C            0.43700252404321       -0.94522952246363       -0.00653558499849
C            0.92779884342108        0.33845305081001        0.01361568637006
C            0.03642147975994        1.48628438815702       -0.00987254543243
O            0.37605559047953        2.65288212544559       -0.01357308360172
N           -1.29574839702200        1.10009181423988       -0.02963962623330
C           -2.30516926326805        2.15592739890495       -0.04554174350915
C           -1.80816314171204       -0.19286713750273       -0.04655645232694
O           -3.00005958300735       -0.39419805114203       -0.06825939456501
N           -0.89314808923914       -1.23774385024698       -0.03891807747573
C           -1.38411061889591       -2.60030899666949       -0.06253336656072
H            3.65825358289660        1.44577303186616        1.06766144902544
H            3.97286772126005        1.25175996278272       -0.66231062336782
H            2.62676824279630        2.28882920839631       -0.10827250776710
H            3.51429689447612       -3.87657505051932        0.03192136283093
H           -1.78845548315238        3.11319447315464       -0.01939480891459
H           -2.91272396026313        2.08159448394358       -0.94745112561719
H           -2.96181436010782        2.05797599015506        0.81874644764986
H           -1.05780456356154       -3.13921913684940        0.82798886967501
H           -1.03154545361560       -3.11639877896264       -0.95678452756674
H           -2.47248427383180       -2.55629537421031       -0.07825120535454
H            1.53848148253917       -2.77401674666614       -0.00522319198449
25
 energy: 52.333368408222 xtb: 6.6.1 (8d0f1dd)
C            3.18555507521871        1.37953519800706        0.08488133887331
N            2.29454784445664        0.24693960021954        0.03935171938783
C            2.70770241541330       -1.01197371338984        0.03943517924840
N            1.54019947085877       -1.76403585862516        0.00632081351772
C            0.43979248925037       -0.94790297120735       -0.00787780099984
C            0.91667079392199        0.34504781091757        0.01327662285415
C            0.03491764179412        1.48591621217829       -0.00780038663894
O            0.37366809394961        2.65482143612823       -0.01229815504720
N           -1.30364842722988        1.10197537147847       -0.03019371385613
C           -2.30898016413796        2.15866523165632       -0.04629384907193
C           -1.80892613519782       -0.18955536728608       -0.04634937127633
O           -3.00032590078609       -0.39635665754310       -0.06829781380322
N           -0.89332720233275       -1.23544845586358       -0.03837193833712
C           -1.38399283611756       -2.59825157594531       -0.06219489210782
H            3.65396915321861        1.44871669461490        1.06719069860214
H            3.96758689938299        1.25455399456857       -0.66157072491196
H            2.62471441938311        2.29366310281875       -0.10846482078556
H            3.57499835423263       -3.91401119285225        0.02815445436173
H           -1.78807406747551        3.11359789769622       -0.01972452492445
H           -2.91454791172081        2.08384837889141       -0.94920072104154
H           -2.96497190951794        2.06032494318458        0.81825618428489
H           -1.05829158192348       -3.13826934750158        0.82821482042036
H           -1.03232890978310       -3.11564081178324       -0.95631799994810
H           -2.47276686689987       -2.55637550204115       -0.07760600663920
H            1.52807392997810       -2.77075581614922       -0.00548521601387
25
 energy: 52.375489707057 xtb: 6.6.1 (8d0f1dd)
C            3.18487677375332        1.37849828183784        0.08555834728695
N            2.29640497730307        0.24275324027548        0.03910869217875
C            2.69659878266326       -1.02087388462780        0.03795650191452
N            1.51984246576500       -1.76843382170808        0.00604235318035
C            0.43895330039171       -0.94893519375808       -0.00933132190644
C            0.90380589159051        0.35241942974185        0.01251304275024
C            0.03720737304755        1.48601650114567       -0.00930471206825
O            0.37052487622403        2.65726624775982       -0.01299182327708
N           -1.31185092722433        1.10328263351839       -0.03202576660644
C           -2.31249240288246        2.16013704101024       -0.04589863698702
C           -1.81186734615741       -0.18347755033991       -0.04635100621446
O           -3.00304581603001       -0.39793597037130       -0.06757330161758
N           -0.89535686328104       -1.23207225211757       -0.03741251132739
C           -1.38408089266498       -2.59600046538373       -0.06227621512010
H            3.65249999850841        1.44778078947645        1.06681957515436
H            3.96721872068778        1.25438323646760       -0.66120167257868
H            2.62248554251152        2.29023665545034       -0.10911348935688
H            3.66661628581952       -3.91754607396196        0.03373992253093
H           -1.78879755264797        3.11348932440238       -0.01975010532681
H           -2.91851600278418        2.08514615950080       -0.94819348530279
H           -2.96685329914637        2.06126354312494        0.81962336078887
H           -1.05799284255500       -3.13649211659144        0.82818787165767
H           -1.03152642412237       -3.11356816733958       -0.95637797327403
H           -2.47317899474478       -2.55677521535452       -0.07800107252681
H            1.51073904391141       -2.77153376998577       -0.00671267780458
25
 energy: 52.247022487869 xtb: 6.6.1 (8d0f1dd)
C            3.18419415117256        1.37499839064117        0.08489157787869
N            2.29502833183371        0.23997185185303        0.03842616747696
C            2.68264456477188       -1.03220197654935        0.03350017735292
N            1.50621937504029       -1.76984574758728        0.00474832319044
C            0.43347393489483       -0.94799041263043       -0.00854777915865
C            0.90034978396398        0.35294145552538        0.01454210907190
C            0.04019722368943        1.48691054891276       -0.00640357105328
O            0.36776922298117        2.65868847361435       -0.01076094415201
N           -1.31403137035941        1.10277235680221       -0.03112816764703
C           -2.31223211714820        2.16037149303274       -0.04692303443054
C           -1.81543095310297       -0.18037694523044       -0.04582280404692
O           -3.00632952064043       -0.39796079708844       -0.06834611775249
N           -0.89886883375486       -1.23135683306269       -0.03598318023428
C           -1.38606078499501       -2.59593897840843       -0.06176270871172
H            3.65264208375904        1.44592197390760        1.06646326312425
H            3.96748435874588        1.25440095757436       -0.66214087380069
H            2.62021886214588        2.28555022914755       -0.10854290599838
H            3.72979051723894       -3.90020517650525        0.03652254919394
H           -1.78822157431777        3.11353183600148       -0.02009635304471
H           -2.91729423720883        2.08632556792840       -0.95007847813846
H           -2.96834435393164        2.06285316061815        0.81743086252009
H           -1.05910012059527       -3.13601284369595        0.82866867494701
H           -1.03262577053190       -3.11264991435203       -0.95600586884046
H           -2.47490493684907       -2.55678031021650       -0.07740333450093
H            1.50564683113397       -2.77488975806036       -0.00821368709837
25
 energy: 51.999335310850 xtb: 6.6.1 (8d0f1dd)
C            3.18409860765459        1.37087152706872        0.08434421770251
N            2.29152072806457        0.23966155686186        0.03813580032475
C            2.66849086939841       -1.04095690871797        0.03187299377337
N            1.49899956911133       -1.76800019707627        0.00381575103576
C            0.42543006311455       -0.94434848410647       -0.00819024281991
C            0.90284622016023        0.35104080337252        0.01445364026733
C            0.04191312118496        1.48900425928798       -0.00916864238325
O            0.36596654376998        2.65992089549940       -0.01339775029668
N           -1.31283203927227        1.10226659643835       -0.03173034404635
C           -2.31169961105626        2.15988500708289       -0.04584289405303
C           -1.81905321447267       -0.17924259320875       -0.04669574166187
O           -3.00965754508964       -0.39627947834743       -0.06823951543574
N           -0.90318085220494       -1.23127957564349       -0.03666257636645
C           -1.38765805998716       -2.59660735296349       -0.06216314823496
H            3.65258013758264        1.44363750056602        1.06716052084997
H            3.96899819423941        1.25074794492491       -0.66136345912867
H            2.62151730478076        2.28244584260665       -0.10936392222078
H            3.76972765906465       -3.88512134485045        0.04189863907564
H           -1.78942078983473        3.11405441746022       -0.01958451222310
H           -2.91882892546828        2.08638662431020       -0.94791860379115
H           -2.96689055569121        2.06218371205395        0.81945875363809
H           -1.05903760798576       -3.13542188474424        0.82828333866923
H           -1.03269909884757       -3.11228555453133       -0.95624962146904
H           -2.47617756906282       -2.55777706010492       -0.07786224218997
H            1.50726151878347       -2.77575765106682       -0.00795654286844
25
 energy: 51.929509366214 xtb: 6.6.1 (8d0f1dd)
C            3.18333345072233        1.37048093786302        0.08371552490470
N            2.28893500234366        0.24143972915031        0.03802988288285
C            2.66333945762307       -1.04292139975933        0.03075381660616
N            1.49978762775458       -1.76591028815126        0.00322323445738
C            0.42133085215246       -0.94182496767198       -0.00691210805110
C            0.90639424584849        0.34933054416876        0.01633527629897
C            0.04116639746761        1.48950214632027       -0.00601388210780
O            0.36568537025958        2.65951874875264       -0.01096133974806
N           -1.31077972407538        1.10161604307034       -0.02993908242145
C           -2.31050175126648        2.15962464790314       -0.04698137092272
C           -1.82026268160171       -0.18058295696558       -0.04580697963964
O           -3.01080839265185       -0.39528064194957       -0.06874587760379
N           -0.90524192491350       -1.23201955043739       -0.03630924332314
C           -1.38848549204844       -2.59730851213208       -0.06185230560886
H            3.65313430421024        1.44286026897520        1.06642849841504
H            3.96774886854244        1.25100445446054       -0.66253232199004
H            2.62131399492899        2.28316307048790       -0.10841617360974
H            3.77740907196441       -3.88502604608679        0.04008309022144
H           -1.78862946726209        3.11394083995731       -0.02026165368123
H           -2.91588483765305        2.08572425497234       -0.95026870801132
H           -2.96753480318514        2.06266785634150        0.81700109028163
H           -1.05966281481540       -3.13601203007109        0.82843825680977
H           -1.03335275419814       -3.11249321752579       -0.95604416568672
H           -2.47680449446080       -2.55798297783074       -0.07744095944631
H            1.51058516225035       -2.77448235166960       -0.00848860287870
25
 energy: 51.931629451977 xtb: 6.6.1 (8d0f1dd)
C            3.18366167405188        1.37075101086568        0.08409843794090
N            2.28813951361162        0.24299173811521        0.03801222548655
C            2.66303504387120       -1.04200192272443        0.03206045935693
N            1.50153966393127       -1.76497613038672        0.00346751954218
C            0.42063401890496       -0.94065306059173       -0.00759862858633
C            0.90777397824001        0.34935456386407        0.01473159051847
C            0.03968606533510        1.48958690416026       -0.00920037138571
O            0.36590613836467        2.65943023286658       -0.01350975131046
N           -1.31013285678510        1.10175347902101       -0.03119929553308
C           -2.31089021096676        2.15960262443467       -0.04578914913062
C           -1.82020843882916       -0.18153211858608       -0.04689445409551
O           -3.01096191766167       -0.39468247015346       -0.06842935287197
N           -0.90562478671343       -1.23214900533784       -0.03754945127089
C           -1.38829609357319       -2.59736188456785       -0.06217707717677
H            3.65269182894705        1.44291671953189        1.06717248988828
H            3.96851100290291        1.24961096025601       -0.66139700374041
H            2.62275515339227        2.28402632416035       -0.10916189906089
H            3.77568238782736       -3.88898092044527        0.04154746250322
H           -1.78937550084807        3.11411231404248       -0.01946821631529
H           -2.91783033347739        2.08585679995468       -0.94796115440241
H           -2.96622060325503        2.06168258209876        0.81937626380573
H           -1.05937380009674       -3.13575800503459        0.82827853333048
H           -1.03317608659886       -3.11294677763049       -0.95615645430390
H           -2.47668872970744       -2.55828385646493       -0.07782993307683
H            1.51097755706875       -2.77332149927623       -0.00738889396438
25
 energy: 51.936373460677 xtb: 6.6.1 (8d0f1dd)
C            3.18355285782411        1.37127412727607        0.08399887076338
N            2.28792774523133        0.24367650820273        0.03812259676924
C            2.66355322792963       -1.04138270487782        0.03201065401603
N            1.50243467696398       -1.76494443403489        0.00339646883422
C            0.42088733076993       -0.94053942525955       -0.00719374429219
C            0.90778911556991        0.34949355078474        0.01542882204843
C            0.03868152330677        1.48931919879806       -0.00755057328485
O            0.36632278635940        2.65916496178634       -0.01213489844934
N           -1.31004178550103        1.10184846212783       -0.03044294568299
C           -2.31088241130450        2.15972219354574       -0.04644258968893
C           -1.81995393200835       -0.18208557615505       -0.04616491421286
O           -3.01089688086823       -0.39445990142193       -0.06841850282313
N           -0.90561788738056       -1.23226526645860       -0.03715898264805
C           -1.38823726109266       -2.59734931761101       -0.06206527725595
H            3.65306873487321        1.44290575458332        1.06672932012632
H            3.96783571204189        1.25011779938870       -0.66208082596727
H            2.62246663715997        2.28454584733471       -0.10874710034294
H            3.77495199935555       -3.89130377989002        0.04029627165010
H           -1.78904382293890        3.11402930965976       -0.02001100900762
H           -2.91677831969315        2.08548160668031       -0.94922348233403
H           -2.96691637029296        2.06209261752456        0.81813394867236
H           -1.05946752427008       -3.13608794139239        0.82826303958061
H           -1.03324673087899       -3.11286924975568       -0.95618296786925
H           -2.47668238046310       -2.55829297121812       -0.07766176816008
H            1.51050762724304       -2.77306276744574       -0.00786651429390
25
 energy: 51.936594446938 xtb: 6.6.1 (8d0f1dd)
C            3.18358476546442        1.37148265560157        0.08415237834168
N            2.28798161836636        0.24388057210527        0.03804937134369
C            2.66393016493765       -1.04141030131159        0.03202477923372
N            1.50266939457955       -1.76517145053304        0.00346776312051
C            0.42136529726299       -0.94068472250804       -0.00745669817821
C            0.90744241524913        0.34966895738030        0.01503487653486
C            0.03801631257655        1.48911338217065       -0.00800917192652
O            0.36678542475993        2.65902000998796       -0.01243680719330
N           -1.31012586226430        1.10200110887400       -0.03080376284617
C           -2.31100835154977        2.15978946999531       -0.04624972414066
C           -1.81968775011823       -0.18239072094474       -0.04653752642280
O           -3.01082894120520       -0.39429601941041       -0.06853050214225
N           -0.90554358929201       -1.23226400072549       -0.03739256884180
C           -1.38823044499859       -2.59727787958401       -0.06200534268767
H            3.65286077169851        1.44303731989125        1.06691468174973
H            3.96793294446295        1.25023165217646       -0.66185761187574
H            2.62244492244012        2.28463975091682       -0.10874261959890
H            3.77540297331708       -3.89145474867215        0.04037991701473
H           -1.78895663769985        3.11397432943415       -0.01971041854291
H           -2.91706005118599        2.08571894641250       -0.94888783226509
H           -2.96673720244767        2.06190339686303        0.81849469434617
H           -1.05957380370433       -3.13594394489613        0.82844379634045
H           -1.03335657657252       -3.11309112869202       -0.95602667999043
H           -2.47670369198228       -2.55823520797984       -0.07762353803465
H            1.50961056584168       -2.77321282437974       -0.00765755719113
