25
 energy: 21.604794958405 xtb: 6.6.1 (8d0f1dd)
C            3.10735024488344        1.20994983874571        0.08908708079104
N            2.23023603520751        0.07841680406819       -0.02149289228740
C            2.58174397391491       -1.26314456947306        0.02660345944206
N            1.42414726383834       -2.01207659785154       -0.02810251894731
C            0.36665265823486       -1.16712102291000       -0.02844956147407
C            0.82614242833705        0.13659451163277       -0.01003246863403
C           -0.01926986575431        1.26908142885857        0.00629034732341
O            0.43651274565453        2.42027551663529        0.01844580798984
N           -1.46155265603177        1.06418323292951       -0.00441148826081
C           -2.14979432060420        2.53133432341068       -0.00343404560249
C           -1.93594331866273       -0.26514570917358       -0.01908442540484
O           -3.10031338426588       -0.58647682997947       -0.03186496922844
N           -0.97460543430149       -1.39754128219569       -0.03254188440097
C           -1.37989761068538       -2.78527717421501       -0.06223709151706
H            3.23790140095144        1.54963128344585        1.13063290509034
H            4.08723929928341        0.95480755249671       -0.28599444966537
H            2.65773676937644        2.01303041866473       -0.50160484097269
H            3.57586540635144       -1.63931114616279       -0.06759855689742
H           -1.27040692413362        3.15354923234939        0.03771966492787
H           -2.71125020288983        2.74050831678818       -0.91068045555251
H           -2.78540121952681        2.71918667416307        0.85484482786481
H           -1.00398005282357       -3.31378863416383        0.82149105767698
H           -0.97395173905015       -3.28716055033382       -0.94836980738723
H           -2.47086235752668       -2.79513197050196       -0.08141375722239
H            1.43914361802590       -3.01993704656636       -0.04520901040020
