25
 energy: 55.740868017347 xtb: 6.6.1 (8d0f1dd)
C            3.01865350645206        1.18015757164120        0.04521827136420
N            2.21853389127175       -0.01302891042012        0.02415187001594
C            2.65934104100428       -1.26396873681111       -0.03490700064824
N            1.59259712089466       -2.10916968877947       -0.05855550110039
C            0.44443032724206       -1.34900559428477       -0.02840891365877
C            0.85051907259646       -0.02841647514298        0.01060179606475
C           -0.13688640903244        1.06756234526699        0.04711731372476
O            0.25458005440187        2.22414297743859        0.09186843535794
N           -1.41794202481536        0.68314848382704        0.02643015947948
C           -2.42182352161915        3.63235887542296        0.00901036057491
C           -1.86260521295290       -0.54944241015934        0.00223686516550
O           -3.00208441848170       -0.93033365834194        0.00030561560709
N           -0.83126679681298       -1.69720613454054       -0.03216824126950
C           -1.24680431483648       -3.07226100036296       -0.06786660966591
H            2.64434129342810        1.84579759993721        0.80454662989909
H            4.06121381657929        0.94260425383284        0.22037230566499
H            2.91196134636461        1.69218726014558       -0.90095814442707
H            3.68395106390183       -1.56844804756898       -0.07833955440421
H           -1.36213459391191        3.59800100973720        0.06891177946499
H           -2.87130755979979        3.72461878449874       -0.94451491336631
H           -2.98151589392767        3.69722803067864        0.90420547489462
H           -0.88730838061299       -3.59208651359224        0.82384838042251
H           -0.83980257102187       -3.55250438776536       -0.95948248756416
H           -2.34267530130426       -3.09819753935925       -0.09710819524771
H            1.65580433892773       -3.11215656350449       -0.08114490967816
