25
 energy: 30.492807203257 xtb: 6.6.1 (8d0f1dd)
C            3.09194943075450        1.20870560716320        0.07661431024045
N            2.21949310983622        0.07344037911451       -0.02578220478483
C            2.58403319326554       -1.25943071247370        0.02806635790662
N            1.43346411699026       -2.02154609973054       -0.03416964848196
C            0.36817009048773       -1.18479694384268       -0.02991418856155
C            0.81628046578519        0.12189822318383       -0.00707714180783
C           -0.03454963960667        1.25296901977825        0.01600687602905
O            0.43868188056472        2.39982036616706        0.04527276721061
N           -1.47969348393561        1.06439595370386        0.00428113738274
C           -2.14227336991302        2.59653081139966       -0.00251283946406
C           -1.93517621059017       -0.27810217776557       -0.01153354316288
O           -3.09499827557691       -0.61519000555817       -0.02269984251560
N           -0.97015281120979       -1.41738978641893       -0.03074212286400
C           -1.36611391219385       -2.80919484864226       -0.06190339608949
H            3.16647052763781        1.57402307919891        1.10670843875794
H            4.09391587368771        0.93342959158901       -0.22811711407014
H            2.66795537945444        1.99429297594544       -0.56086561630046
H            3.58033070643738       -1.62321532710639       -0.08693219391768
H           -1.21917310552385        3.15866442788951        0.04873020162893
H           -2.67952990704190        2.82701386780112       -0.91195387222681
H           -2.76780044029901        2.81201882592139        0.84948935995698
H           -0.98045751441715       -3.33588928980878        0.81910963733848
H           -0.95155890158835       -3.30493319723122       -0.94783678812445
H           -2.45752911580409       -2.83513214873938       -0.08101439495931
H            1.45868886396964       -3.02889201093310       -0.05407917677117
