25
 energy: -1.607707503058 xtb: 6.6.1 (8d0f1dd)
C            3.19324784871014        1.19756826655784        0.08592436028250
N            2.28398980641444        0.09489579798902        0.00597797572578
C            2.60029635787590       -1.25820507749857        0.03354863795759
N            1.41387728668084       -1.96989984233335       -0.01023416871094
C            0.38345054968220       -1.10033315743524       -0.02174390310836
C            0.88527193901451        0.19379374280355       -0.00363761261813
C            0.05976801252133        1.33481589880584       -0.00541702217431
O            0.43591983551101        2.51268360628947        0.00129084458154
N           -1.35228747791649        1.04110853526682       -0.02005366583661
C           -2.17587268287978        2.29642619591285       -0.02451863815332
C           -1.87445583610180       -0.22932737983073       -0.03846915635152
O           -3.06307300249942       -0.46581142100313       -0.05747875414527
N           -0.96059268593245       -1.33736611019066       -0.03883762169446
C           -1.43158617026168       -2.70393635016746       -0.06300677448074
H            3.52687476077015        1.37921951190793        1.11585513099081
H            4.08352585984291        1.00614722319276       -0.51372288644615
H            2.65708246984299        2.07909491640370       -0.27756193214786
H            3.58112508398451       -1.68153630476723        0.01227962193927
H           -1.46908702754043        3.11080791608552        0.00064012109160
H           -2.78613104306270        2.37401702126617       -0.93036292775732
H           -2.84233742258629        2.34824682115540        0.83692557821142
H           -1.09673807220250       -3.24826339929647        0.82519167519883
H           -1.06803001896339       -3.22535999798505       -0.95357542144522
H           -2.51991077325315       -2.66152463742914       -0.08007248214002
H            1.36829747980880       -2.97872893568382       -0.03164166724727
