25
 energy: 59.534095022037 xtb: 6.6.1 (8d0f1dd)
C            3.02821271550652        1.20040946989857        0.07428138927266
N            2.18566640461050        0.03884542087133       -0.00063779753380
C            2.60889276771722       -1.23360123022508        0.01183912883954
N            1.51171774553025       -2.06096919712127       -0.04546331991716
C            0.38937417294567       -1.26443502443875       -0.03294768977062
C            0.80943263402593        0.04241060274392       -0.00020220453656
C           -0.12339125935063        1.16597048576671        0.04386612194011
O            0.36639384737896        2.29165368632319        0.09974363623389
N           -1.43913011725911        0.84911714878595        0.01941540529606
C           -2.25684578774024        3.19388624905304        0.00787340778884
C           -1.90447038546710       -0.40479081539496       -0.00125711548240
O           -3.05799414840484       -0.75529399103713        0.00497397304906
N           -0.90634457109433       -1.56125395094153       -0.03173627540161
C           -1.30366473540378       -2.93797724834273       -0.06275418099433
H            2.87430558093371        1.69522951551202        1.03698799420834
H            4.06529857424584        0.90041722520660        0.02006672096519
H            2.76089375523200        1.87530785915908       -0.74579469778807
H            3.61860777970120       -1.55816513828630       -0.12719933104701
H           -1.21226269100155        3.36357576854246        0.08260808298719
H           -2.70418866333446        3.26084324751953       -0.93532978218108
H           -2.82711881776871        3.23511951507094        0.88317322510007
H           -0.90781630756275       -3.44126933905122        0.82457550197269
H           -0.85838126327440       -3.40299636721845       -0.94632822569698
H           -2.39679944040522       -2.95500763262746       -0.08853494820219
H            1.55495209005925       -3.06443457858548       -0.07044280385821
