25
 energy: -5.992468903413 xtb: 6.6.1 (8d0f1dd)
C            3.22807315821279        1.18433358260002        0.08792926335839
N            2.30074883343935        0.10206838040896        0.02980032717339
C            2.60206400281943       -1.24372526830117        0.03242873358347
N            1.41930821960483       -1.94661724572743       -0.00141451929612
C            0.39575327139127       -1.07093760734493       -0.01204918344715
C            0.91048807938722        0.21867950176483        0.00978554161730
C            0.09951587665224        1.37260162744448       -0.00488528578593
O            0.47321716094512        2.55056740911017       -0.00234328918621
N           -1.29369521589834        1.04704756299314       -0.02782072375826
C           -2.20474194854802        2.19732818728013       -0.04151230260869
C           -1.83490431895405       -0.20608186530575       -0.04518216642126
O           -3.03143596097621       -0.40639780606872       -0.06762193212645
N           -0.94514666394701       -1.31130445991898       -0.03762851236655
C           -1.45761099281127       -2.66249524998628       -0.06080413382789
H            3.66031650817962        1.27631405296287        1.08904668661969
H            4.03982823947223        1.03156701913119       -0.62399613714429
H            2.68091852053809        2.09617486047881       -0.15138363371342
H            3.58021156577946       -1.65941412779543        0.04014152706018
H           -1.59980428298852        3.09739847463967       -0.01721915442460
H           -2.81533540847511        2.18625760599805       -0.94693236338474
H           -2.87105794868788        2.16871637414833        0.82119549275917
H           -1.14453727980046       -3.21373823387834        0.82988099970859
H           -1.11914082420645       -3.19237408277914       -0.95515993403015
H           -2.54396884112622       -2.58972529508188       -0.07551753853058
H            1.36034927516630       -2.95161761953418       -0.01879681767635
