25
 energy: 57.562556692074 xtb: 6.6.1 (8d0f1dd)
C            2.99389533648059        1.20144924011110        0.06680201676398
N            2.18980135198491        0.01366114626304        0.02377484450458
C            2.63193757670520       -1.24006245341562       -0.02531200467066
N            1.56162435137378       -2.08892156946988       -0.05412430956930
C            0.41926603069779       -1.31979831571755       -0.02794616909201
C            0.82147007659448       -0.00509257075236        0.01180187832930
C           -0.15053556925512        1.10161242214428        0.04828137548089
O            0.30015163588842        2.23892090575315        0.09129812923665
N           -1.43645080418496        0.74700269035791        0.02245449315065
C           -2.34566247462791        3.46736997392796        0.00905380049829
C           -1.88120682892549       -0.49279023159795        0.00048143707902
O           -3.02516211618344       -0.86189544348499        0.00030464115171
N           -0.86342529038513       -1.64671678048560       -0.03017692762594
C           -1.27160474023353       -3.02094786227751       -0.06657802272163
H            2.69650593243534        1.81369403349647        0.91855227149409
H            4.02725346792030        0.92815182675953        0.19361967668315
H            2.86191973332040        1.76753213180474       -0.85080391975885
H            3.65392190256448       -1.54317379894856       -0.10103314615150
H           -1.28496976685537        3.52223264726107        0.07882424413321
H           -2.79532118416254        3.54524785941772       -0.93721705409395
H           -2.91469854437744        3.51989916759426        0.88930668384414
H           -0.89702376163090       -3.53367305286329        0.82164044474270
H           -0.84750699694070       -3.49224220590712       -0.95434354514598
H           -2.36385464434076       -3.04143106961250       -0.09371095974117
H            1.61971295105351       -3.09222841997058       -0.07841967327889
