25
 energy: 7.791235531604 xtb: 6.6.1 (8d0f1dd)
C            3.15121548036015        1.20730150138422        0.08732968227711
N            2.26057807356101        0.08537513719993       -0.01487975565797
C            2.59459437976476       -1.26873449454467        0.02545126907097
N            1.41677908910668       -1.99468620361897       -0.02207810007618
C            0.37530940689723       -1.13511825167186       -0.02857041284945
C            0.85734172099914        0.16382289363874       -0.01319685236527
C            0.02011771062468        1.29463928912060       -0.00213505384208
O            0.42553907353650        2.46346973319257        0.00634866320375
N           -1.41055089735507        1.04348386094537       -0.00985936926396
C           -2.15562697944207        2.40705213344189       -0.01156144319815
C           -1.90873354511598       -0.25015564831397       -0.02733431535460
O           -3.08651348621928       -0.52829016361225       -0.04341997149103
N           -0.96796052822116       -1.36740200170654       -0.03482032123185
C           -1.40656115223187       -2.74487562666487       -0.06186008636085
H            3.38214531816132        1.46889570192453        1.13358930057527
H            4.10030571663518        0.98188546296515       -0.39578815815833
H            2.64231901490103        2.05475527662514       -0.39311952192437
H            3.58064742473926       -1.67316387753773       -0.03685463132893
H           -1.34736837200482        3.11789089657467        0.01723010999600
H           -2.74971054440899        2.55722326489527       -0.91796378884878
H           -2.81492514307338        2.53674553611741        0.84638055254714
H           -1.05154820908507       -3.28161950898894        0.82402655631775
H           -1.02330607863381       -3.25764897460619       -0.95027342526859
H           -2.49650868081194       -2.72775337749199       -0.07904607354691
H            1.40009289989495       -3.00398745357828       -0.04286595972041
