25
 energy: 56.498336762883 xtb: 6.6.1 (8d0f1dd)
C            3.00381897769394        1.19160635582456        0.06648727900229
N            2.20424145518558        0.00052451291680        0.02890387413604
C            2.64552929386029       -1.25087642104669       -0.03046965969864
N            1.57763758949423       -2.09750859314768       -0.05632407657512
C            0.43159398586416       -1.33439265672076       -0.02720698247514
C            0.83623774174075       -0.01695986245124        0.01245822672801
C           -0.14141976427709        1.08547971225131        0.04804099732072
O            0.28047365461437        2.23137619153308        0.09111806843125
N           -1.42559092604163        0.71590821505919        0.02402983043369
C           -2.38326529894271        3.55007808190766        0.00938261943306
C           -1.87033531765464       -0.52014813742196        0.00086675050205
O           -3.01167469431763       -0.89556696984722       -0.00005285307062
N           -0.84693845411874       -1.67229144118290       -0.03089987552691
C           -1.25980632513167       -3.04679353092232       -0.06675916823719
H            2.65873543100694        1.83430144019431        0.86688215335048
H            4.03955625275011        0.94575926222887        0.24167342910228
H            2.90128571641962        1.72526119359311       -0.86404255217888
H            3.66839148448756       -1.55608864169434       -0.08812899935318
H           -1.32136175698618        3.56723424919437        0.07484152411259
H           -2.83516235038046        3.63110531919940       -0.94076919445731
H           -2.95031332137116        3.60473024825801        0.89673688617339
H           -0.89376473102887       -3.56363162365330        0.82278897565131
H           -0.84370322013490       -3.52347936390439       -0.95533925760555
H           -2.35310005122220       -3.06843228334810       -0.09436825508864
H            1.64050758965065       -3.10021894393605       -0.07719240945869
