25
 energy: 2.434221633102 xtb: 6.6.1 (8d0f1dd)
C            3.17258573883054        1.20331763593837        0.08639409303949
N            2.27298703333269        0.09026605759779       -0.00553404371706
C            2.59821095493761       -1.26427846691303        0.03044599039464
N            1.41416683675428       -1.98282665460705       -0.01702849543610
C            0.37872199524266       -1.11763051805608       -0.02530166281091
C            0.87151996964835        0.17905944092958       -0.00890195070264
C            0.04003657437437        1.31481624332117       -0.00315483957853
O            0.42762286669350        2.48927402062946        0.00457659936452
N           -1.38194788214119        1.04130542193053       -0.01382699835685
C           -2.16936156153809        2.34923462631272       -0.02028997859845
C           -1.89190865928042       -0.24023748982096       -0.03151064635890
O           -3.07545354428513       -0.49656562608194       -0.04936164340009
N           -0.96579012804205       -1.35243899088801       -0.03633881768678
C           -1.42056719109163       -2.72454550221047       -0.06306469076652
H            3.45549975790455        1.42554173915628        1.12653074311219
H            4.09447148179353        0.99466164851431       -0.45634861356831
H            2.64720285508821        2.06903227695070       -0.33496473258598
H            3.58155472114646       -1.68032837241285       -0.01567822254078
H           -1.40783572835103        3.11062704187096        0.00711889506159
H           -2.76979263697002        2.46378503030935       -0.92726936137769
H           -2.83226499821421        2.44451447831943        0.84018328525008
H           -1.07576206483442       -3.26638685560439        0.82322585252973
H           -1.04777820960884       -3.24100567269027       -0.95314728985251
H           -2.50977021757217       -2.69476739054103       -0.07979894466668
H            1.38297621919566       -2.99239814652771       -0.03840095227947
