25
 energy: 59.255974601811 xtb: 6.6.1 (8d0f1dd)
C            3.01941246927181        1.19924853427132        0.06753849068349
N            2.18287243975323        0.03188148060299        0.00857652112686
C            2.61563108581852       -1.23268347960478       -0.00285075421097
N            1.52878798840375       -2.07050604526932       -0.04989796028512
C            0.39771779232323       -1.28455624246314       -0.03298100439320
C            0.80942294135823        0.02559856833154        0.00505619614018
C           -0.13652485406380        1.14531426014653        0.04590673334943
O            0.34454774147554        2.27335510396564        0.09789691823323
N           -1.44032204429479        0.81483195173383        0.02030375195513
C           -2.27989408028101        3.28834012458599        0.00907964044209
C           -1.89801386282020       -0.43387556903664       -0.00037132499435
O           -3.04838080517449       -0.79230066271618        0.00489570521495
N           -0.89311050598848       -1.59120432213634       -0.03136669687069
C           -1.29597712455991       -2.96586290761334       -0.06410788360176
H            2.81609645152837        1.73409671923634        0.99570572790636
H            4.06003282931791        0.89464261750226        0.08328625087711
H            2.79655431521539        1.84011184947999       -0.79462778593844
H            3.63114724382122       -1.54296127559543       -0.13488333257162
H           -1.22793783043862        3.41652677396385        0.08267638445494
H           -2.72106996177185        3.36162441498357       -0.93510253570395
H           -2.84647726870776        3.33460478193440        0.88521568980125
H           -0.91244288712241       -3.47329192739878        0.82391798076096
H           -0.86349150315169       -3.43381991718710       -0.94978111340242
H           -2.38749911481581       -2.98201158460568       -0.09018078383496
H            1.57666486563163       -3.07398879195164       -0.07494187119328
