25
 energy: 54.062499113455 xtb: 6.6.1 (8d0f1dd)
C            3.02176783789697        1.16296718779260        0.04481396125029
N            2.24707805483139       -0.04403398150624        0.01074373384637
C            2.70523722009320       -1.28718874893221       -0.03483771247681
N            1.65516571249920       -2.15003990162427       -0.05153153145442
C            0.49340191949193       -1.40916508864317       -0.01617990203195
C            0.87894603604200       -0.07836358484304        0.02815014353769
C           -0.14929711795424        0.98780427533361        0.04940720187010
O            0.16819836775185        2.16985089992112        0.06487102103375
N           -1.41192707640298        0.55462447968810        0.04230798941806
C           -2.54085378001951        3.93709726045950       -0.00364118670029
C           -1.84329650237885       -0.67174570738798        0.00683587454285
O           -2.97460384077857       -1.07641134443609       -0.00492870452513
N           -0.77088456993758       -1.79482712198672       -0.02648049795361
C           -1.18457113763480       -3.17062907702413       -0.06890055236617
H            2.78937643321538        1.72789356319126        0.95043432373481
H            4.07954808434417        0.91322024813398       -0.00368415167567
H            2.74936900768129        1.79862360415628       -0.79697276513977
H            3.73594809539399       -1.57206256995955       -0.04422827719381
H           -1.53612475808239        3.54691026252508        0.03347425502211
H           -3.01570487732232        4.09442806817254       -0.94717668106041
H           -3.09519311849408        4.07450698956859        0.90004052742315
H           -0.84903888781358       -3.71086615630770        0.82040608877211
H           -0.81302531398232       -3.66886544866397       -0.96773336238829
H           -2.27638989108853       -3.15464081807019       -0.08992462195585
H            1.73151382222375       -3.15364679516325       -0.09029909328300
