25
 energy: 54.218937783085 xtb: 6.6.1 (8d0f1dd)
C            3.02716248824874        1.16442573586631        0.04634581774225
N            2.24547433900947       -0.04064956235136        0.01719311300270
C            2.70981935806142       -1.27929984620481       -0.03026848005009
N            1.66627631065567       -2.15101715531724       -0.05035027214876
C            0.50062278329285       -1.41875436882847       -0.01328314281041
C            0.87823385632596       -0.08395554399587        0.02918011407681
C           -0.14438736414127        0.98000916224865        0.04347288590232
O            0.16645362699301        2.16067417907336        0.06445490514189
N           -1.40702918577769        0.53122521236524        0.04157172461021
C           -2.53917427665161        3.92055127174661       -0.00576552755255
C           -1.83307445073886       -0.69481714392839        0.00683646046473
O           -2.96229943962502       -1.10711437876131       -0.00579956797469
N           -0.75925818480906       -1.81723956661294       -0.02320266800706
C           -1.17464680236281       -3.19415057447877       -0.06784103066078
H            2.84290211471819        1.68287929602561        0.98874400181743
H            4.08781462508327        0.92452226589145       -0.07739625516109
H            2.69576543074884        1.83292417299608       -0.74841472105469
H            3.74036638460945       -1.55700469087331       -0.05299253923830
H           -1.55327144314535        3.48337212100377        0.03223101012175
H           -3.00242695044904        4.18240210210784       -0.93758539660695
H           -3.08583991273841        4.16342473342541        0.88514639870662
H           -0.84461125344327       -3.73558610293511        0.82247107093100
H           -0.80195362431627       -3.69251497837023       -0.96639769420185
H           -2.26550170534893       -3.18226388364932       -0.09236008551176
H            1.73410151640893       -3.15388814853480       -0.08978372908166
