25
 energy: 55.205709789762 xtb: 6.6.1 (8d0f1dd)
C            3.01860325282772        1.18386358351252        0.02682315179469
N            2.23042270722386       -0.02100249791019        0.01662798833717
C            2.67204600586654       -1.27344925095716       -0.03709775495364
N            1.60757314978194       -2.11941812757016       -0.05803465300062
C            0.45668830647822       -1.36298069952869       -0.02762356967091
C            0.86265963469171       -0.03915326700229        0.00893910494966
C           -0.13325220401700        1.05032857420712        0.04659001390951
O            0.22891802158989        2.21891456604085        0.08999537347783
N           -1.41129704575139        0.65159675342161        0.02919560354259
C           -2.46410252291718        3.71349710793964        0.00762155568451
C           -1.85597349129991       -0.57826357278701        0.00357631220937
O           -2.99346119533890       -0.96513620419092        0.00036657718115
N           -0.81606518949554       -1.72178288766128       -0.03234354624826
C           -1.23011090403238       -3.09758389869906       -0.06915267221391
H            2.64262893643723        1.84814794011196        0.80174154421605
H            4.07159049611912        0.94265138857157        0.16248393031513
H            2.88733067785362        1.72153891909726       -0.91700643443663
H            3.69780068060722       -1.57798501949881       -0.06484789778831
H           -1.41059142989677        3.61752114308706        0.05772189932281
H           -2.91113900324422        3.81868280545022       -0.94771589941464
H           -3.01345969075420        3.79352459484874        0.91028798632712
H           -0.87638520410405       -3.62135116695965        0.82336431341686
H           -0.83289879027418       -3.58089428401852       -0.96468936964425
H           -2.32676323444763       -3.12633372330366       -0.09836837187152
H            1.67020640230088       -3.12369681154290       -0.08693269036359
