25
 energy: 53.984739526167 xtb: 6.6.1 (8d0f1dd)
C            3.03529854087234        1.16780840226890        0.05410790258866
N            2.25500991002208       -0.03808164780376        0.00709285477648
C            2.70412452219263       -1.28395074178514       -0.03625508017183
N            1.65164058525940       -2.14193213399105       -0.04946197023029
C            0.49825736011152       -1.39675296216652       -0.01638700455382
C            0.88817552606531       -0.06619688001233        0.02132586289091
C           -0.13709221942932        0.99903553054080        0.03752601241114
O            0.17306705612216        2.18115738695925        0.05165462525789
N           -1.39214438962556        0.53430458787481        0.02850613240217
C           -2.53787237193414        3.87378554791669       -0.00514146211701
C           -1.81551779806996       -0.69756336771009        0.00492660227147
O           -2.94621430123174       -1.10985690222982        0.00001419233715
N           -0.76201471016001       -1.79308695565507       -0.02501956557446
C           -1.18433716287064       -3.16566140307777       -0.06522338579654
H            2.88455433068592        1.66334304944330        1.02071836868686
H            4.09215249661240        0.93211486913898       -0.08515288189935
H            2.68040888923048        1.85498766818187       -0.71919430161207
H            3.72914188208825       -1.58128592513556       -0.03772170134720
H           -1.56609583671804        3.42441474961523        0.03734958170160
H           -3.00504621914860        4.08137975635752       -0.94910999718524
H           -3.08951946805619        4.06477167975371        0.89420216034882
H           -0.85565106626207       -3.70044291826081        0.82816391502239
H           -0.81288555769907       -3.66363166002117       -0.96323562786855
H           -2.27648017998860       -3.14492478565782       -0.08931856935022
H            1.70429983715348       -3.14554607321495       -0.08494284628114
