25
 energy: 42.517497897922 xtb: 6.6.1 (8d0f1dd)
C            3.07002697111293        1.21100081838944        0.07319713149888
N            2.20664681688896        0.07232660167216       -0.03286210875055
C            2.59069199297380       -1.25364461377697        0.03702486117070
N            1.44573980004444       -2.02998944170680       -0.03891397977519
C            0.37383240628725       -1.20152280455275       -0.03254855686505
C            0.80708861466330        0.10769528510306       -0.01070894036508
C           -0.05118823542176        1.23838503483819        0.02440528940636
O            0.43272244625928        2.38301726516931        0.07197442298332
N           -1.47713136518387        1.04493883475699        0.00742000308781
C           -2.14714231032364        2.68286244094706       -0.00005452558293
C           -1.92929654195697       -0.29996421672457       -0.00423664692219
O           -3.08482452738018       -0.65063382060752       -0.01989006914034
N           -0.95866423492228       -1.43982073128255       -0.02900862313814
C           -1.34697949822036       -2.83301706146754       -0.06150305941207
H            3.09421961682750        1.60202278568157        1.09715476098278
H            4.08126423111885        0.92388598629993       -0.17460930211121
H            2.66946690270043        1.96822837997093       -0.61681188660932
H            3.58852956970844       -1.60376390475325       -0.09820491538007
H           -1.18937578665918        3.19112821047464        0.05662848971223
H           -2.66915121921385        2.92638161082576       -0.91158764141745
H           -2.75994044196890        2.90701743576592        0.85640533969865
H           -0.95437742436165       -3.35213111249851        0.82093404032727
H           -0.92232322482469       -3.31884429107326       -0.94744748212501
H           -2.43922754796233       -2.85806475896485       -0.08284444842713
H            1.47948623555569       -3.03704037257515       -0.06097224300620
