25
 energy: 54.416914556921 xtb: 6.6.1 (8d0f1dd)
C            3.02368608097350        1.16895467283236        0.04943215751702
N            2.24723511593463       -0.04133193911699        0.01050570834661
C            2.69708219112643       -1.29159216162505       -0.03999447822233
N            1.63720010463326       -2.14232132584430       -0.05506944755541
C            0.48097513694772       -1.39292282454645       -0.02341323815456
C            0.87862980277650       -0.06420970792510        0.02051899908310
C           -0.14317310697382        1.00847967365504        0.04816732062865
O            0.17758870045851        2.19159311999511        0.06976358088487
N           -1.41006036962082        0.58465487594997        0.03761654923409
C           -2.52482821692707        3.87065867471341        0.00125285664417
C           -1.84844149679211       -0.64125148459256        0.00512402024384
O           -2.98149937012438       -1.04052628043989       -0.00246413418640
N           -0.78614027196846       -1.77125287524893       -0.03240309937274
C           -1.20132101567799       -3.14525852170817       -0.07137232697475
H            2.73142674974804        1.76813791918710        0.91579135064442
H            4.09076275958660        0.93202779953247        0.04622456804819
H            2.79635064532266        1.77203616102997       -0.83077973590744
H            3.72699998345279       -1.58963329876938       -0.03808191490309
H           -1.49742606846899        3.59374910910533        0.04086059567466
H           -2.98678915881970        4.00209804429950       -0.94838538353474
H           -3.07209993770096        3.97811623913402        0.90880678275910
H           -0.86129629066303       -3.68055074701872        0.81971544913794
H           -0.82343000571125       -3.63948350166130       -0.97011472936481
H           -2.29558690505614       -3.13018054374763       -0.09228237182971
H            1.70336488101246       -3.14729838702646       -0.09080964110549
