25
 energy: -42.159434662406 gnorm: 0.004488142084 xtb: 6.6.1 (8d0f1dd)
C            2.93363319234519        1.08889302010533        0.28927083282080
N            2.12265779172361       -0.07483790917197        0.05330129067004
C            2.57144117659268       -1.31030918799297       -0.09935803683704
N            1.53901238069009       -2.13699808672253       -0.30484384680959
C            0.36493313404458       -1.40707373409404       -0.25569594099855
C            0.74773715274004       -0.08898643834238       -0.00230720927581
C           -0.05411367656034        1.15854606892592       -0.12142325653029
O            0.41324781436656        2.12514539588897       -0.68192082054804
N           -1.33961889646102        1.11247210829280        0.35625342309898
C           -2.27625685872985        2.13591316076794       -0.07362224248941
C           -1.79424250894239        0.22828908520791        1.31603587976810
O           -2.93192362473967        0.18382690851651        1.67313640999142
N           -0.88205297992083       -1.89422670054725       -0.32667011079198
C           -1.29661061356679       -2.88832020580893       -0.99697575568314
H            2.77892349368018        1.45517280465742        1.30546345000550
H            3.98258446296078        0.83944444219236        0.15170594490671
H            2.64342597934713        1.88089215481994       -0.40289146938568
H            3.60223357510258       -1.60615525928075       -0.05631591205765
H           -1.76092497608930        2.83661996623851       -0.72594301934318
H           -3.10612670136158        1.66650986125659       -0.60324399567661
H           -2.67865904419453        2.65905219936817        0.79342224563033
H           -0.99439302636227       -0.38012145975325        1.75644900251328
H           -0.70513457400929       -3.44292366614164       -1.72467229268099
H           -2.32396490539671       -3.18559050691615       -0.85304135406208
H            1.60462374684342       -3.13699547986929       -0.43494159833356
