72
 energy: -99.366161260722 gnorm: 0.001043544279 xtb: 6.6.1 (8d0f1dd)
N           -2.98095011813324        3.42693335099667        2.73448170146004
C           -2.53891576663417        2.60409057439537        1.90361830491097
C           -3.26809730915245        2.21791732313455        0.64275690974744
C           -3.50625368841299        0.72037114485473        0.62535157722757
C           -3.79593954802659        0.08167357563820       -0.58035279757587
C           -4.04399834047103       -1.28139835514972       -0.63128441970493
O           -4.32884131439191       -1.98029958198564       -1.74841152847098
C           -4.46764811047933       -1.30120934535778       -2.97429061967979
C           -4.00888513269339       -2.04597139309741        0.56797936892165
O           -4.26964487718061       -3.35847930235913        0.42426942000070
C           -4.37174030846869       -4.16961800598184        1.57241118952561
C           -3.72713521860107       -1.39954706031712        1.76234974380248
C           -3.47881492203547       -0.03443397551259        1.78861570453119
C           -2.33037490686582        2.61633299164343       -0.55775039172113
C           -1.37534172472956        1.58443711581055       -0.99822461385795
C           -0.34486574339022        0.98225744904563       -0.12341616311830
N            0.45078624786063        0.00767579505408       -0.83727214843337
C            1.82413096773538       -0.11801589416555       -0.40126526778359
C            2.73193921441575       -0.65674349735558       -1.52091184397306
C            4.17288572390553       -0.43812046794425       -1.16271829718614
C            4.78101397832533        0.78635509864146       -1.41121046072829
C            6.10112015109455        1.01159727581714       -1.05970572812659
C            6.84854412145137        0.01417167795649       -0.44537968845078
O            8.13353230825687        0.11667711703966       -0.06662980800580
C            8.83821398548854        1.30946279386606       -0.32509622366145
C            6.23345809491540       -1.24322895913748       -0.17914332440070
O            7.02616609829310       -2.15074283500310        0.41806378203615
C            6.51797247707277       -3.43158251777809        0.70865921354285
C            4.90830494644649       -1.44241825449246       -0.54115161601523
C           -0.23324404220516       -1.25166368641151       -1.01108621559761
C           -4.63870631196207        2.93459074118636        0.48102800699540
C           -5.61028150411990        2.54455776576856        1.59321522209525
C           -4.51799277581550        4.45457523853293        0.41875949127278
H           -3.85494553470406        0.66181124204322       -1.48562438968712
H           -5.26315673091876       -0.55157509928945       -2.92979411952474
H           -4.73429450174955       -2.06531302682830       -3.70186105611903
H           -3.53056646861348       -0.82410171395292       -3.27929588416341
H           -5.14212929854149       -3.80013232143390        2.25532750542925
H           -4.65398438019944       -5.15579462125752        1.20889195163093
H           -3.41648417105517       -4.23852043029305        2.10192937854143
H           -3.70587954005798       -1.95155512385910        2.68777293008529
H           -3.28435985168322        0.44027327146398        2.73799295175794
H           -2.95659410389125        2.90147557891814       -1.40255464145113
H           -1.78812839641470        3.51629532672356       -0.23900133793647
H           -0.82141801409975        0.52135262309099        0.76530775710360
H           -1.32888249963469        1.32612366338884       -2.04267150069813
H           -1.56141728273824        2.11209784184303        2.00429064739847
H            0.31877671775252        1.77502046413257        0.25199398904344
H            1.91280555478596       -0.77102934384577        0.48236314294967
H            2.18788509454620        0.87443259504626       -0.12433354234358
H            2.49135627254236       -0.11931977314568       -2.43903010926533
H            2.54535347676619       -1.71852352225025       -1.67844568763680
H            4.22188498860987        1.57319271711156       -1.89403506800754
H            6.54563681769267        1.97045682223295       -1.27098019979935
H            8.40141150588365        2.15676890424394        0.21216187347512
H            8.86867766105846        1.53174945614386       -1.39576269418980
H            9.84966783464038        1.13546676981019        0.03702425995807
H            7.34003200604563       -3.97361963069519        1.17214210688467
H            5.67812147013329       -3.37970693563614        1.40845315996197
H            6.20585217155763       -3.95443059032577       -0.20040887149956
H            4.43564646272315       -2.39289825682240       -0.34969607996938
H            0.27193278637051       -1.84494208061229       -1.76926751072976
H           -1.25448615094137       -1.06539943156390       -1.33541554642066
H           -0.27040461850200       -1.83131735046528       -0.07692301466020
H           -5.05884780955898        2.58095881216474       -0.46865832841549
H           -5.23809583097791        2.89307828492544        2.55172984273281
H           -5.75002766769876        1.46715704913252        1.63655287666488
H           -6.57607111473073        3.00784152402809        1.41002585023108
H           -4.12643325507255        4.83536013632613        1.35700764305119
H           -3.87458197811402        4.78271607908001       -0.39311785061919
H           -5.50330959861488        4.88507057297477        0.25958156887983
H           -2.40442307706770        3.64341514258047        3.54133436036916
