25
 energy: -42.013086004856 gnorm: 0.005847787772 xtb: 6.6.1 (8d0f1dd)
C            3.25372641393876        1.21186798794528        0.31292895730138
N            2.25720125457791        0.23508550482499        0.00380125953963
C            2.17503709866306       -0.98158029314872        0.76920346674480
N            1.24568950853737       -1.89393005199822        0.12381869756332
C            0.27117497139091       -0.97130892484904        0.07638276898669
C            1.06407205642132        0.05702752272058        0.80994006890438
C           -1.62170076936422        1.66990968433348       -1.67416765340546
O           -1.69839148674376        1.97346034158374       -2.77902388319421
N           -1.50182377966035        1.17034353537764       -0.52627919043120
C           -1.26022241555217        1.94375555185093        0.69575279364716
C           -2.00349186949630       -0.24911021793739       -0.38025689172944
O           -3.17504354914786       -0.45539560140436       -0.46583353580821
N           -1.01687329265358       -1.19137606239484       -0.25744691409221
C           -1.43486623493716       -2.58263431916139       -0.45342659976746
H            3.47773725100041        1.27362555217324        1.38377642734120
H            4.16462673115296        0.94765838170165       -0.22468025890522
H            2.90664706240616        2.18382253003794       -0.03519892377095
H            2.90849944412667       -1.31564344767396        1.47714366934495
H           -1.01969230625383        2.97203094070693        0.43411558967267
H           -2.15151688581492        1.91967016674399        1.32221895879388
H           -0.41099581256359        1.48171010350977        1.21839557287796
H           -1.07013974451646       -3.19731934945034        0.36732405416831
H           -1.04763906352517       -2.95850308329381       -1.39998943194331
H           -2.52149827501637       -2.62069352903903       -0.47539839619249
H            1.36991520712875       -2.80423438156021       -0.29192898774763
