25
 energy: -42.137319631075 gnorm: 0.009289293973 xtb: 6.6.1 (8d0f1dd)
C            3.16353769906476        0.79176666807467        0.50720113040580
N            2.35608207374499        0.03400592005637       -0.48653131203411
C            2.63031233113847       -1.42054192834233       -0.40561480168079
N            1.45522461389792       -1.98313599555784       -0.19484309588600
C            0.40117794177579       -1.07844621116241       -0.13592563116883
C            0.92512889967145        0.17188505422808       -0.31468945050650
C            0.12217124870811        1.36447023679145       -0.31410165397771
O            0.53586464478665        2.49034392954579       -0.46012808837343
N           -1.22571435858501        1.05333965351507       -0.11420939454150
C           -2.17188371280027        2.15957601740023       -0.09509145183514
C           -1.78596826107255       -0.19550835463786        0.07485429543943
O           -2.95981109717170       -0.35825618566768        0.24542569789784
N           -0.90259264828426       -1.30632950863038        0.05921341928883
C           -1.44930192605747       -2.63461679863521        0.25926071226971
H            2.90688328270277        0.45653195901635        1.50918564596028
H            4.22034839677522        0.60783623359717        0.32521479673014
H            2.94101676266524        1.85376077273133        0.40869409719801
H            2.66696368528285        0.38719340652688       -1.41233454209062
H           -1.61642375595495        3.08143093881509       -0.25101224880494
H           -2.91357568903642        2.02552619869790       -0.88256583139796
H           -2.69114396121750        2.18657909448540        0.86282439186809
H           -1.03325714257030       -3.08923848424446        1.15884167140412
H           -1.25157178338718       -3.26600079842431       -0.60739999848617
H           -2.52699883853521       -2.52853784347667        0.38179103358400
H            1.36396310855961       -2.98539543310161       -0.08688777336354
