72
 energy: -99.527902308918 xtb: 6.6.1 (8d0f1dd)
N           -1.46133655695244        2.77466429881580        2.22505360800652
C           -1.51287513235645        2.01205045479149        1.22785190705328
C           -2.65721627935672        1.94649132360329        0.24853558498044
C           -3.33997381482417        0.59730428047531        0.37175325934655
C           -4.28833842402903        0.20077606062411       -0.57305937973506
C           -4.93557206369453       -1.01548206329813       -0.48257580878346
O           -5.88149339187541       -1.47085340475151       -1.35017244595105
C           -6.31402927068857       -0.62043944974702       -2.37994677336619
C           -4.62294086643656       -1.89111808605362        0.58215268790340
O           -5.29441617279265       -3.07408339546201        0.57950252905783
C           -5.07875967948364       -3.96764184006885        1.64168667483574
C           -3.67697059970916       -1.49848655489628        1.51108020860204
C           -3.04667717011888       -0.26307640190554        1.40795411884503
C           -2.03867996648995        2.09686262826233       -1.16759985110493
C           -1.27579000751996        0.87120609684044       -1.70352115798173
C            0.02072893319849        0.62242089545228       -1.00692209575532
N            0.49162796826278       -0.53443129666521       -0.56966895448314
C            1.82618797542677       -0.61753565790719       -0.04264407152640
C            2.61815476455448       -1.33516462072189       -1.04268566706283
C            4.53282476268193        0.50642652304233       -0.62485620883970
C            5.32891242421806        1.61129832996981       -0.54352580900586
C            6.67592150992345        1.44675696014725       -0.18793463843422
C            7.24709666323021        0.20243246998978        0.08001432915787
O            8.53885769153591       -0.08865033101392        0.43029577638593
C            9.48571965951533        0.92160359494041        0.51603041102320
C            6.43695670832379       -0.92001397086724        0.03421449533938
O            6.94950103300017       -2.15721386136414        0.32491593790576
C            6.05547797782859       -3.24353845653791        0.32199867575854
C            5.13555134235221       -0.70649198253036       -0.32867735569116
C           -0.29814276565583       -1.72246703245352       -0.56478018835706
C           -3.73319928648134        3.05119102933768        0.47600106918989
C           -4.42131058557207        2.88085887152006        1.83384028875964
C           -3.18046164950310        4.46908590053557        0.36764663140040
H           -4.53010777516439        0.87096291019085       -1.38142631282406
H           -6.73321238513167        0.30809265099524       -1.98057519405015
H           -7.09423883847567       -1.17077541945962       -2.90294107751813
H           -5.50812776640315       -0.38207394275352       -3.08153913000039
H           -5.33681271878221       -3.51604003193880        2.60409046061622
H           -5.73699628458679       -4.81389619151634        1.45241334122236
H           -4.04202886732160       -4.31779227069502        1.67452123453993
H           -3.42532193121683       -2.14093516954001        2.33945112501805
H           -2.33431772042181        0.02420304443142        2.16549296608726
H           -2.83214907538331        2.32202238327854       -1.87825582612848
H           -1.37667457813071        2.96328230299948       -1.16303617987209
H           -1.90479558088183       -0.00605016011286       -1.63098841110690
H           -1.10276665409914        1.07875078492940       -2.77212988807133
H           -0.69894092335574        1.34698596593813        0.95597214536473
H            0.72626257424037        1.46124648190658       -1.09850936364033
H            1.87936128952727       -1.19592789672154        0.86919356210816
H            2.10192514551988        0.38487742876600        0.22094384435036
H            2.55254689866219       -1.01244823499045       -2.06547013691237
H            2.92777649717270       -2.33432991247211       -0.78675265363357
H            4.97287144949754        2.58747650062894       -0.77761775880682
H            7.28359767021389        2.33688840480616       -0.11902332059534
H            9.21523267194831        1.67569243460656        1.25928528793321
H            9.66074452412275        1.39556978234652       -0.45203930898254
H           10.39322405362697        0.41756902978536        0.83362738021315
H            6.61778780023969       -4.12516429988594        0.61661597373140
H            5.21507550409873       -3.11412457284768        1.01894912458346
H            5.67363720571990       -3.41856696208608       -0.67796223784934
H            4.52921775706700       -1.54229278491359       -0.41302976015071
H           -0.50364001666754       -2.04711677646476       -1.58423176949987
H           -1.24851671009295       -1.53939641251523       -0.04611068724347
H            0.26489279455873       -2.48893680069734       -0.04320352626601
H           -4.49426230460108        2.92421402395636       -0.30493210893383
H           -3.69420986972946        3.00443061833529        2.62890733837205
H           -4.86752348806015        1.89346122618759        1.92561289140390
H           -5.20406625804605        3.62718184037660        1.95322429003422
H           -2.40652478389619        4.61785499013703        1.11238724487122
H           -2.77997931058123        4.66748734821681       -0.62088295175229
H           -3.97539599295253        5.18839777843791        0.55600203797407
H           -0.57523696583522        2.74234279890759        2.72055775442253
