  25
        -42.04625879
 C          3.3843433985        1.1867936753       -0.1541329398
 N          2.4496849004        0.0934865365       -0.0740055770
 C          2.7882852625       -1.1900826271       -0.0887008343
 N          1.6963293345       -1.9531270374        0.0283594460
 C          0.5671165817       -1.1232335870        0.1245524354
 C          1.0954447315        0.1966655660        0.0597068783
 C          0.3260883253        1.4477554580        0.0861197762
 O          0.8474468964        2.5510254836       -0.1019209981
 N         -0.9593544374        1.2492664084        0.3377803554
 C         -1.9591048995        2.2091993506        0.3744158043
 C         -4.1669099222        0.3088579306       -0.6111409739
 O         -4.0478817963       -0.8066317082       -0.5183603728
 N         -0.6640114648       -1.4584242728        0.2317557587
 C         -1.1802819248       -2.7698970731        0.3008886260
 H          3.9613554321        1.2551630875        0.7691236798
 H          4.0675432533        1.0355897077       -0.9887001509
 H          2.8286338321        2.1157223720       -0.2936095235
 H          3.7941649733       -1.5548281467       -0.1824427950
 H         -1.7025981056        3.1185994243       -0.1880050425
 H         -2.8777777209        1.7585621666       -0.0511849157
 H         -2.1915285847        2.4814795115        1.4122890373
 H         -0.7581355153       -3.3373932956        1.1384610490
 H         -0.9951361152       -3.3270086772       -0.6252917623
 H         -2.2582416261       -2.6945011947        0.4439130668
 H          1.6896954372       -2.9624002561        0.0384222984
