  25
        -42.17279027
 C          4.8678193957        0.2230486214        0.1380405827
 N          3.9849611398       -0.6224914167       -0.1346089810
 C          3.1491256313       -1.5817790891        0.0057644418
 N          1.8229413363       -1.4307921227       -0.0055142045
 C          1.1733217925       -0.2148688302       -0.0168918894
 C         -0.1618429707       -0.0112109305       -0.0108740311
 C         -0.7010874900        1.3856823061       -0.0179419939
 O         -0.0714158249        2.4104716734       -0.0232379433
 N         -2.0628682446        1.2357380978       -0.0069616741
 C         -3.0138668843        2.3202261814       -0.0113858231
 C         -2.4279560550       -0.0987804602        0.0096478037
 O         -3.5322549290       -0.5568250900        0.0307874619
 N         -1.2409944980       -0.8455071861        0.0050331851
 C         -1.2882053702       -2.2851472770        0.0180481092
 H          5.1528859870        0.4532641539        1.1609222317
 H          5.3589400704        0.7543459706       -0.6668277174
 H          1.8155591927        0.6512400698       -0.0333389257
 H          3.5362681994       -2.5961857239        0.0097868967
 H         -2.4850864113        3.2337098403        0.2540613280
 H         -3.4592479214        2.4298812032       -1.0014962028
 H         -3.8041911842        2.1109100157        0.7083924316
 H         -0.8165324125       -2.6881034351        0.9167493245
 H         -0.8306984606       -2.7033736994       -0.8810807510
 H         -2.3437433210       -2.5622160950        0.0288318202
 H          1.2474740959       -2.2647924718       -0.0051251757
