  25
        -42.14143752
 C          3.2942804403        0.5478126272        0.0057294378
 N          2.2723577599       -0.3018128066        0.0024002166
 C          2.3193566926       -1.6558263736        0.0051074255
 N          1.0518700375       -2.1648189629        0.0050221469
 C          0.1790694050       -1.1246822518        0.0005577840
 C          0.9234767125        0.0484357368       -0.0001822460
 C          0.3028017073        1.3460348599       -0.0021675404
 O          0.8754004647        2.4145273954       -0.0072618457
 N         -1.0955994755        1.2433663377        0.0023694765
 C         -1.8565173189        2.4809946011        0.0197269913
 C         -1.8569174537        0.0891429992        0.0024073037
 O         -3.0596621063        0.1161882842        0.0055507549
 N         -1.1679435036       -1.1388816413       -0.0008062262
 C         -1.9270565096       -2.3725394908       -0.0001490109
 H          3.0869255777        1.6027661842        0.0038940683
 H          4.2967131842        0.1637922931       -0.0111629581
 H          4.6249876065        3.5730422893       -0.5453052359
 H          3.2122298253       -2.2439984486        0.0136392749
 H         -1.1526263361        3.3110861878        0.0355583075
 H         -2.4922298074        2.5419261585       -0.8651889924
 H         -2.4981314510        2.5105289025        0.9008519047
 H         -1.6911893665       -2.9658942239        0.8842582017
 H         -1.7216622464       -2.9487330890       -0.9035945409
 H         -2.9845237428       -2.1088492043        0.0197199938
 H          0.8251349694       -3.1476011978       -0.0001352666
