25
 energy: 54.512122346708 xtb: 6.6.1 (8d0f1dd)
C            2.96793816557567        1.19211562115578        0.07013846265878
N            2.20245944519899       -0.02409206081272        0.02581265735897
C            2.66502596475735       -1.26794136605576       -0.00232366060525
N            1.61838813524036       -2.13289223836055       -0.01775814856388
C            0.45876598783633       -1.39575791885015       -0.00577453438766
C            0.83413315700060       -0.06161709679972        0.01831467742840
C           -0.20178818407668        1.00038756706317       -0.03247754297498
O            0.10821972028996        2.18584969655638       -0.04418543043376
N           -1.45028235209273        0.52800800273691       -0.07549510995178
C           -2.35870043156251        3.96906718775484        0.02414718470867
C           -1.85319432476575       -0.71733524668707       -0.05566111196086
O           -2.98882551727250       -1.11905554165963       -0.06159410148815
N           -0.80411493831989       -1.79756355935446       -0.03865948824680
C           -1.19851359049294       -3.17997198369033       -0.06230856394785
H            3.21759966535550        1.44303744397672        1.11386148633989
H            3.88998081673467        1.08708767961999       -0.50964364518465
H            2.33320241843458        1.98678531027931       -0.34291258284889
H            3.69436756915620       -1.55591907404478        0.05579806854840
H           -1.29949953254416        4.02948379689093        0.04368695812331
H           -2.82648075494753        3.79322022527383       -0.91991234648831
H           -2.87739646669750        3.72461576180460        0.92372510781889
H           -0.84662816736454       -3.69457255326133        0.83373796952627
H           -0.81480054269399       -3.67528669979746       -0.95629496562946
H           -2.28504391780558       -3.20624822677980       -0.08301570433466
H            1.68518974178433       -3.13724852715535       -0.01615329508307
