25
 energy: 57.339850095148 xtb: 6.6.1 (8d0f1dd)
C            3.02758919519450        1.21532474452997        0.09582766453991
N            2.19561055119738        0.04159509867734        0.00792279758536
C            2.60685591549089       -1.24757480307876        0.10898467690401
N            1.49308505330617       -2.06317115202580        0.01526411487935
C            0.38601887861065       -1.25238144856589       -0.01441344562335
C            0.81925107773828        0.05042572686677       -0.00245754592460
C           -0.10740501403135        1.16324359949503       -0.08121002668080
O            0.34755991348565        2.29636783863228       -0.19494545829300
N           -1.42301474206493        0.83918329055480       -0.02853941560154
C           -2.15936129711317        3.02989880822679        0.03208658455758
C           -1.89739491389707       -0.42369672370040       -0.02619870361273
O           -3.05783032386017       -0.75830754565680       -0.03328130223995
N           -0.91465491746813       -1.54860434242201       -0.04221464374267
C           -1.31974573644267       -2.92677777585496       -0.06850821604037
H            3.21596818008460        1.46308070307596        1.13993864096584
H            3.97967765944134        1.03392475126453       -0.37565846615528
H            2.44836163693464        2.03142536609860       -0.35581984089265
H            3.59062956310055       -1.55600523631045       -0.12526903586806
H           -1.19674756343036        3.47107538280607        0.10881795348895
H           -2.62713678393294        3.01604549820314       -0.91333915055996
H           -2.74588420969895        2.95940769635760        0.90529964910408
H           -0.92704476171512       -3.43047949243583        0.81894770047304
H           -0.89005743772568       -3.40502494162345       -0.95209332243640
H           -2.41699971992671       -2.92912220611177       -0.08371726943906
H            1.53383084337715       -3.07009836188176       -0.00600217146007
