25
 energy: 1.494288288816 xtb: 6.6.1 (8d0f1dd)
C            3.15050578062988        1.21143759720017        0.09606216152088
N            2.26080538330308        0.09316371036300        0.01320552865754
C            2.58474475028911       -1.25396972576282        0.05202787724157
N            1.41334816264005       -1.98640685023665       -0.00008195108346
C            0.37444727707956       -1.12418790854864       -0.01918180923474
C            0.86605620410782        0.17086287519099       -0.00486239052970
C            0.04135942210368        1.30421723566807       -0.02667865160297
O            0.44504542377999        2.47238366249138       -0.04679877752008
N           -1.37534886511392        1.03500514825843       -0.03273448621080
C           -2.14077399525395        2.33775979474996       -0.02606814557737
C           -1.89502956309067       -0.24548931141709       -0.04970677640574
O           -3.07846152750653       -0.50170147101008       -0.06923668888847
N           -0.96958791735981       -1.35837822004113       -0.04472811138445
C           -1.42094453616822       -2.73202966060577       -0.06179266149817
H            3.55867656197299        1.34177982879231        1.10209357856061
H            3.96792699028671        1.11074413546136       -0.59981821710541
H            2.55938332126918        2.09375671658071       -0.16102769126079
H            3.58612180615842       -1.61071836361943       -0.03092403025027
H           -1.39194588696388        3.12522262748192        0.00442217921512
H           -2.75717857383479        2.43253009981780       -0.92704806992290
H           -2.80730771005041        2.40171531150558        0.83600090505987
H           -1.07157457226340       -3.26914149800480        0.82652076283111
H           -1.04492106044566       -3.25262493987158       -0.94839982092632
H           -2.51056143143810       -2.70050307044063       -0.07861001715743
H            1.39206831050433       -2.99716421360336       -0.00227848535136
