25
 energy: -2.021934226563 xtb: 6.6.1 (8d0f1dd)
C            3.17564842808932        1.20271330640400        0.09270389908942
N            2.27565238407929        0.09268476267012        0.01980997001039
C            2.58896788551205       -1.26030226503517        0.04345636023445
N            1.41160985629934       -1.97569206206628        0.00144144259599
C            0.38033862333656       -1.10631219977394       -0.01588258413195
C            0.88166447028022        0.18684236548914        0.00033060632422
C            0.06005376381992        1.32563216831742       -0.02035587234373
O            0.44109935583157        2.50072240889956       -0.03377292410436
N           -1.34782678039458        1.03347848604709       -0.03304544162959
C           -2.15842507947802        2.28683259602977       -0.03237437243606
C           -1.87653128023266       -0.23537557999735       -0.05017640085655
O           -3.06524877567486       -0.47078093618675       -0.06995332062325
N           -0.96302763845752       -1.34315482935695       -0.04316018642729
C           -1.43338447884570       -2.70990927371780       -0.06219095186113
H            3.60304122709376        1.31567141348391        1.09312303525423
H            3.98094641683005        1.09930726740168       -0.62297747802743
H            2.59371582933084        2.09597047182742       -0.14396930721189
H            3.58528663421713       -1.62225854985322        0.00625028658666
H           -1.45718817044942        3.11636470667634       -0.00262263962513
H           -2.77729683968060        2.34820971895326       -0.93359285276308
H           -2.82562348966627        2.31713414718224        0.83090850886778
H           -1.09614047966185       -3.25219513920806        0.82679595856738
H           -1.06962467436413       -3.23380119218787       -0.95128689619443
H           -2.52199623372656       -2.66453355972901       -0.07857117361049
H            1.37595126335961       -2.98498354149263       -0.00337258571528
