72
 energy: 71.510746201093 xtb: 6.6.1 (8d0f1dd)
N           -1.69643313349313        2.97200239399993        2.28482765378506
C           -1.66396724498316        2.24151821839820        1.27086694581482
C           -2.81657181806642        2.10317109972902        0.31124328568958
C           -3.35336174930697        0.67994132748597        0.37397401735822
C           -4.31410122065777        0.26031591224733       -0.55050095794497
C           -4.85537733776570       -1.01000179139879       -0.50197583182858
O           -5.80431178349435       -1.49129975530694       -1.34950147766692
C           -6.37257231093388       -0.62290139525380       -2.29705835208247
C           -4.41964127465323       -1.91834771587813        0.49177305436261
O           -5.00351317879744       -3.14444175104721        0.45706641676200
C           -4.67059061720509       -4.08061827332935        1.45173217122525
C           -3.46558050211289       -1.50251641346666        1.40077276787040
C           -2.94309250787542       -0.21491563378749        1.34451811005981
C           -2.24059745181868        2.39215541625093       -1.10013571171194
C           -1.36814976248509        1.26554777432257       -1.68265345638676
C           -0.01292906409651        1.20635275301651       -1.09404963193720
N            0.63326133330820        0.09611138445308       -0.74372365774868
C            2.02490623580163        0.14872608730173       -0.35761754712948
C            2.96319662491359       -0.24755625533366       -1.51140762135496
C            4.38625406708834       -0.14636686258199       -1.04696813408635
C            5.13685986190241        1.00836977479081       -1.24936079505345
C            6.44489339953509        1.09783195750714       -0.78822523547470
C            7.03344909144792        0.06134317242979       -0.10106153167301
O            8.30260221850855        0.06948341346816        0.38775835532443
C            9.09258513911668        1.21016649086034        0.19135521431595
C            6.27860318603223       -1.16351749227347        0.14802493081247
O            6.71883738783703       -2.14885779052976        0.76282265227317
C            6.80931739183913       -5.60247807678131        2.04181141169507
C            4.94803673236279       -1.18985396604535       -0.36831617889984
C            0.03161805240233       -1.20863317650566       -0.88625545989368
C           -3.99399643240385        3.07894982097100        0.60530754317038
C           -4.66229675701266        2.76928654395011        1.94354825677084
C           -3.58553049163856        4.55034806291230        0.56363152512573
H           -4.65052054085310        0.94769301984258       -1.30942935461185
H           -6.83863682056329        0.24679195090471       -1.82133232608706
H           -7.13840211174777       -1.20828804156342       -2.80364275483974
H           -5.63473569984798       -0.28418012929576       -3.03251475456544
H           -4.91490612985905       -3.71063513663712        2.45316147511915
H           -5.27562575448345       -4.96006801239179        1.23657704363013
H           -3.61043613688862       -4.35307758488193        1.41453454817527
H           -3.12562493115983       -2.16554051548965        2.18074187713883
H           -2.22755771802044        0.08230398129749        2.09570718456269
H           -3.07392725493015        2.56383762975690       -1.78142655052984
H           -1.65656490658662        3.31356249092697       -1.05983346416186
H           -1.88963720954767        0.31390474614483       -1.59194680529416
H           -1.25094646120157        1.47884137585138       -2.75398612743649
H           -0.78074654473703        1.66504980285475        0.94857607225360
H            0.53487288011998        2.12951074098589       -1.01167517683746
H            2.19085527867621       -0.53419363484584        0.48336648777082
H            2.27101673210244        1.16223477368177       -0.03166627594448
H            2.80395006817567        0.43675914164431       -2.34927834631956
H            2.74160060124448       -1.26833213570713       -1.83748110348761
H            4.71466763287679        1.84512935042395       -1.78211996133279
H            6.99385859050156        2.00726148240094       -0.98018426720599
H            8.64878896695450        2.09937994995387        0.65471976865051
H            9.26365899867614        1.40905064844266       -0.87313411648803
H           10.04153639103805        0.98715294607776        0.67400365232235
H            7.78878070405147       -5.29241010466244        2.28296279472847
H            6.06562109890588       -5.56806338967905        2.79373372777604
H            6.65511796716576       -6.15323389121964        1.15071835231469
H            4.39541780441991       -2.10758319025774       -0.20353045066803
H           -0.17141717884924       -1.43237001979349       -1.93623769796779
H           -0.90495340975311       -1.26535239019212       -0.32483385240161
H            0.72129672907361       -1.95420499989437       -0.50337219377504
H           -4.73667509097953        2.91355181396922       -0.18416213257806
H           -3.96605843104745        2.94207189382484        2.75647327860517
H           -5.00369323552233        1.73754150858322        1.98172805256024
H           -5.52265327623493        3.41945967291849        2.08158442335144
H           -2.83680042345711        4.75276082969074        1.32169705480604
H           -3.20039381164324        4.83812251678348       -0.41114303630624
H           -4.45450056868359        5.16962114500667        0.77208219199045
H           -0.85406759085390        3.01573276537258        2.85095548505781
