72
 energy: 70.415128852633 xtb: 6.6.1 (8d0f1dd)
N           -1.68106723578813        2.96573681491218        2.28509949531532
C           -1.66102322874908        2.24401986996388        1.26301809616801
C           -2.81248389655715        2.10147423749989        0.30587416089562
C           -3.35032477208984        0.67863524694675        0.37005145836761
C           -4.31303470149361        0.26007762187703       -0.55229421321160
C           -4.85324875943822       -1.01082694439199       -0.50484899622278
O           -5.80502752411276       -1.49011180324772       -1.35048336948672
C           -6.37298731129231       -0.62183956168008       -2.29765966056365
C           -4.41710853519132       -1.92019225913488        0.48675303245985
O           -5.00292393331786       -3.14630696228115        0.45226387045740
C           -4.67005768850383       -4.08177784185701        1.44735999994780
C           -3.46242253277938       -1.50481806367468        1.39617738051919
C           -2.93876358976818       -0.21767337839017        1.33848209453482
C           -2.24120158739586        2.38482984573154       -1.10978804638577
C           -1.35996487462881        1.26278311139867       -1.68454578641118
C           -0.01744228043771        1.20627737151688       -1.06078584822358
N            0.63336471746011        0.08793847339858       -0.73431114282894
C            2.01828480292207        0.13960194239299       -0.35020670929898
C            2.95828010860900       -0.24086079763055       -1.51125892938407
C            4.38614657932845       -0.14086184538680       -1.04314766955540
C            5.12307193644079        1.02581746720658       -1.25210350192248
C            6.43497621103057        1.12352802068101       -0.79727232590935
C            7.02947883347959        0.08571156555304       -0.11126921010094
O            8.29684875545860        0.08588840495770        0.37880861393786
C            9.10649464334200        1.21440139141497        0.19640016576889
C            6.29404673189051       -1.15118622950429        0.15123522724357
O            6.78523740473389       -2.11227707703322        0.77002045330100
C            6.80028531581507       -5.80459847682201        2.12243601167423
C            4.95866155756947       -1.18552794950507       -0.35780687726538
C            0.03123973358027       -1.21269228447009       -0.87420793198250
C           -3.98477106719776        3.08014531667258        0.60245502001081
C           -4.65000227528176        2.77082294883632        1.94281826925059
C           -3.57068797120523        4.54966507177931        0.56417968435698
H           -4.65187129208955        0.94763206731475       -1.30959438187222
H           -6.83952425733531        0.24720887394044       -1.82206486508673
H           -7.13900354520291       -1.20650697022090       -2.80467994316104
H           -5.63565410715244       -0.28236809375090       -3.03362283658263
H           -4.91140919871639       -3.71072972947982        2.44873989548554
H           -5.27695909370458       -4.96010402248697        1.23360187719073
H           -3.61083803273850       -4.35735128592521        1.40768401606633
H           -3.11931273497456       -2.17070835802425        2.17174609745917
H           -2.21870188966812        0.07917269074594        2.08523713557434
H           -3.07412799921787        2.54894741058070       -1.79357886801593
H           -1.65811164054327        3.30598841011555       -1.07387543693751
H           -1.88112744490129        0.31057828233063       -1.59736787902233
H           -1.23060208546684        1.47159758463289       -2.75617700165878
H           -0.77945846794546        1.66697853705594        0.93258948543772
H            0.54034470458772        2.12621284604021       -0.98730268737468
H            2.18612267285084       -0.54232467919404        0.48714515712393
H            2.25962967907257        1.14990538368692       -0.01638134712298
H            2.77483680294527        0.42954269744067       -2.35306592488280
H            2.74325976837741       -1.26117558440091       -1.83013429058377
H            4.68526415479404        1.85657386421333       -1.78647663278066
H            6.98231473345785        2.03517183470391       -0.99181028044521
H            8.67287474910587        2.10439402766750        0.66559515589356
H            9.28421036528532        1.41767851718312       -0.86553285913533
H           10.05692106341285        0.98719724970221        0.67824507652465
H            7.74066039464240       -5.34516241117304        2.29361245502144
H            6.04440109290390       -5.75658272799145        2.87238874126113
H            6.63809636785140       -6.34519117299843        1.21772783214222
H            4.41981965587584       -2.10731988531385       -0.18585724626632
H           -0.17917101337002       -1.44998197389746       -1.92056155307059
H           -0.90425433615212       -1.25676552716286       -0.31090182430899
H            0.70964538032337       -1.96396913989528       -0.47633125623472
H           -4.73109312248077        2.92341365191807       -0.18519681878788
H           -3.94591997697811        2.93823552687401        2.75111581608405
H           -4.98964191029220        1.73889264043451        1.98027967774029
H           -5.51007404822330        3.42181025578249        2.08298705460063
H           -2.81497741480907        4.74578767021312        1.31796732014630
H           -3.18458231140900        4.83511727992205       -0.41103113200375
H           -4.43830363075910        5.17034487470139        0.77595748738261
H           -0.82753083080746        2.99256678204636        2.83840142083292
