72
 energy: 28.794960619764 xtb: 6.6.1 (8d0f1dd)
N           -1.57125243445582        2.86450322291469        2.26260492656896
C           -1.59758551335988        2.18137270461775        1.20927999354076
C           -2.77048183842955        2.07662650222892        0.27076802587197
C           -3.32915853153795        0.66214913123790        0.34157082001779
C           -4.30771362216761        0.25202226804580       -0.56608300002484
C           -4.85093590159534       -1.01713082036108       -0.51775386637590
O           -5.81604296078143       -1.49157641582920       -1.35694618700078
C           -6.38596445501823       -0.61527066204805       -2.29535891535284
C           -4.40805760739082       -1.93185000565922        0.46211278336854
O           -5.00287787729590       -3.16039723712269        0.43116183060876
C           -4.66640961572489       -4.09205480406388        1.42523629659384
C           -3.43790518092390       -1.52725882031916        1.35782547698579
C           -2.90823766587962       -0.24316849318113        1.29810178747010
C           -2.21692572368052        2.33580271813575       -1.15683214629379
C           -1.29487423190078        1.22561761297422       -1.69021174960432
C           -0.00844007975746        1.19111668066257       -0.95207019486908
N            0.64496047831670        0.00433154342344       -0.64543483997133
C            2.01498015003436        0.02413130558371       -0.23602155819210
C            2.96523656721371       -0.44387087351904       -1.36122708201332
C            4.39289446263349       -0.35439387982065       -0.91835347544893
C            5.12186942071941        0.80273859794781       -1.11876032194721
C            6.43388237067977        0.86368749749275       -0.66737355741702
C            7.02713078730143       -0.21858452850288        0.00561990474729
O            8.30386251976762       -0.13833681650753        0.48414038378591
C            9.07021214505047        1.02217168447330        0.27219058932646
C            6.27930729202766       -1.46168942096545        0.24742316034679
O            6.81000862681060       -2.64169861298141        0.97198238474235
C            6.50425141994042       -4.10976097521016        1.38959684883379
C            4.98279521496439       -1.42816517824360       -0.24061127198358
C           -0.01731950417092       -1.27226105245075       -0.71901666418142
C           -3.91596582308370        3.07747739065478        0.58902937917714
C           -4.55682041016257        2.77462781814583        1.94195159168410
C           -3.46306607685427        4.53583596320545        0.55498442015847
H           -4.65316724600662        0.94579141917643       -1.31435003502751
H           -6.84350589051347        0.25436180945574       -1.81139297537200
H           -7.15854127173966       -1.19310184461998       -2.80104570670597
H           -5.65302287422530       -0.27367883249492       -3.03470696145980
H           -4.89260271566823       -3.71261463809963        2.42723608642868
H           -5.28360578018558       -4.96676845653981        1.22318387536993
H           -3.60998211535217       -4.37956479842556        1.37475712818863
H           -3.08932903470149       -2.19816577840351        2.12725004339773
H           -2.17615703785558        0.04968107772778        2.03467133691879
H           -3.05173948372502        2.45026691611158       -1.85045950045059
H           -1.65473923218696        3.27043839245556       -1.14710912729906
H           -1.82014220748954        0.27552052737670       -1.61856253990014
H           -1.10065374010898        1.41776962608678       -2.75702613515680
H           -0.72546381584227        1.64859543508227        0.77334809859944
H            0.63596777020164        2.05011079692251       -1.00664904513685
H            2.16128386058811       -0.62317901143345        0.64041056171584
H            2.28037718953319        1.04372889164320        0.05196884831868
H            2.79011663899567        0.20079166007357       -2.22774716833999
H            2.70694533618724       -1.46938445740574       -1.62982397131615
H            4.67850928524584        1.64648910481952       -1.63816352261165
H            6.97632734839092        1.79085125693388       -0.85536423909926
H            8.64159228978968        1.90695503538646        0.75749960471995
H            9.21649711877492        1.23281436400132       -0.79263993930106
H           10.03541333969699        0.79825909198190        0.72776929412304
H            7.41352168227185       -4.49525179838422        1.86822317796324
H            5.68654378777704       -4.19390249222706        2.11782525199800
H            6.25313968052203       -4.77495900715086        0.55511053558257
H            4.37983621100989       -2.31055865399970       -0.08444882130733
H           -0.20713276549308       -1.56798121774797       -1.75866541334489
H           -0.97392808322255       -1.24905671284467       -0.18560399398888
H            0.61475838372351       -2.03277818232831       -0.26199253567900
H           -4.67952345897867        2.94730951562447       -0.18661842170124
H           -3.83078418374281        2.91749492856646        2.73289896667316
H           -4.92204739265138        1.75071637139686        1.97934838829667
H           -5.39405407804492        3.44752570597444        2.11360136623805
H           -2.68426574353876        4.69989248649271        1.29115728257726
H           -3.09717162172894        4.81976140714765       -0.42780246733247
H           -4.30459470272340        5.18180278018130        0.79718589774412
H           -0.69601748148523        2.85853464578345        2.77438632850586
