72
 energy: 11.311865813114 xtb: 6.6.1 (8d0f1dd)
N           -1.54707777478378        2.83659318000641        2.25529333181561
C           -1.58362257617203        2.16791322598832        1.19313869004999
C           -2.76315272669501        2.07086592543680        0.26319926936484
C           -3.32530642731456        0.65754711230158        0.33624198778116
C           -4.30655824393076        0.24950952874643       -0.56956180925093
C           -4.85043582394231       -1.01950825112383       -0.52201336601415
O           -5.81857548885881       -1.49261081457013       -1.35904456022793
C           -6.38885989335788       -0.61408463700455       -2.29512810972450
C           -4.40510268842733       -1.93530325295787        0.45617040514080
O           -5.00016250616958       -3.16330257211732        0.42499027532387
C           -4.66582360232489       -4.09439651081778        1.42069194605188
C           -3.43337949532701       -1.53200676962049        1.35104052865645
C           -2.90215302602287       -0.24847078926906        1.29126773987075
C           -2.21079425151402        2.32465324204397       -1.16522226644700
C           -1.28354949775522        1.21147898453587       -1.68330657664419
C           -0.00492195166962        1.17288304668567       -0.92785129995630
N            0.64744212193610       -0.01382437780203       -0.62609463281473
C            2.01367262988004        0.00669847605199       -0.21370830422834
C            2.95752949269180       -0.47180860714329       -1.33799306768310
C            4.38387152489587       -0.37906083951819       -0.89604184466771
C            5.10908140913335        0.78065145572339       -1.09567654573103
C            6.42120749907779        0.85183843885968       -0.64596423461298
C            7.01704678299094       -0.22630244948622        0.02079421190525
O            8.29631788650748       -0.16265057624003        0.49702308298928
C            9.06996432581528        0.99332749207239        0.28617878080613
C            6.27651126498195       -1.46102761656512        0.25640325360319
O            6.85614124263917       -2.57743795186111        0.95661394523138
C            6.45430883246004       -3.96063163008431        1.31978302029194
C            4.97556080578877       -1.45102637890404       -0.21988285633775
C           -0.02541523194835       -1.28238990288184       -0.69064227943178
C           -3.90226989254260        3.07712730446074        0.58679479572455
C           -4.53923887805997        2.77491030417458        1.94175040474337
C           -3.44284617113456        4.53351338078857        0.55272184433961
H           -4.65473446168180        0.94497519532260       -1.31514455990664
H           -6.84467462467069        0.25538869216718       -1.80912985388682
H           -7.16293866004174       -1.19086083144021       -2.79943153252188
H           -5.65685878408057       -0.27268445501657       -3.03554149580858
H           -4.88991450179189       -3.71294571293779        2.42247051940643
H           -5.28599222901994       -4.96723125448071        1.22043473494757
H           -3.61029584069017       -4.38481160586806        1.36974488058040
H           -3.08362959010758       -2.20389451918457        2.11908839572762
H           -2.16724924611278        0.04244032118667        2.02596078730288
H           -3.04509221408734        2.43040363106551       -1.86083997439289
H           -1.65424090929871        3.26290301047107       -1.16363692260440
H           -1.81269274976830        0.26263478635874       -1.62073125145930
H           -1.07264983329889        1.40591161077048       -2.74561883198350
H           -0.71292381977731        1.64732830993590        0.73345993803092
H            0.63971908684050        2.03172616611763       -0.98706470529431
H            2.15105894068615       -0.63551781122096        0.66643382071832
H            2.28540359094604        1.02651643826983        0.06851224364883
H            2.78220682260447        0.16245233651588       -2.21165610952897
H            2.69968890669434       -1.49980371908394       -1.59571462059412
H            4.66225128713499        1.62263555946864       -1.61321083267465
H            6.96091584042774        1.77816166009244       -0.83147852536940
H            8.64619541462554        1.87803421036496        0.77518460651122
H            9.21413483165295        1.20623276840802       -0.77846851177233
H           10.03598067949101        0.76646607123349        0.73786482912278
H            7.31937685486840       -4.41759632727633        1.80776940116579
H            5.61234596853076       -4.00055061576504        2.02587858662621
H            6.18495179643289       -4.57911316660329        0.45451774585868
H            4.38173834444603       -2.33933667178266       -0.06388905768699
H           -0.21145566204711       -1.58461436643450       -1.72862566418395
H           -0.98467232855474       -1.24568419308479       -0.16298906561769
H            0.60013595780829       -2.03970731484711       -0.22138308242221
H           -4.66927647173061        2.95062613360592       -0.18601758549931
H           -3.80976550711624        2.91314179729596        2.73078374929575
H           -4.90858631708232        1.75251711608875        1.97863959545028
H           -5.37344873306994        3.45062401940792        2.11685468864468
H           -2.65972825879071        4.69489343536412        1.28534264748360
H           -3.08020926679468        4.81798033060470       -0.43125580653405
H           -4.28080522761623        5.18237252883875        0.79947663285369
H           -0.66744870838282        2.83111936403007        2.76163067175742
