72
 energy: 0.054562973490 xtb: 6.6.1 (8d0f1dd)
N           -1.52406220263712        2.80933683418207        2.24820777630418
C           -1.56966828100123        2.15927458802185        1.17471353693299
C           -2.75606652232927        2.06592006021514        0.25544311009636
C           -3.32116703456199        0.65341010034487        0.33138515369232
C           -4.30523412750087        0.24791036533509       -0.57267740431911
C           -4.85002351808622       -1.02077434317869       -0.52597063288838
O           -5.81967711645837       -1.49162310341110       -1.36186907203633
C           -6.39185833772726       -0.61207405633455       -2.29537190536607
C           -4.40239917295120       -1.93816096442269        0.45035940175636
O           -4.99700825835417       -3.16521685007785        0.41855809336125
C           -4.66509556792300       -4.09657515988215        1.41532876901128
C           -3.42896585728552       -1.53655500846264        1.34435779999647
C           -2.89595870614920       -0.25358467281067        1.28473268827330
C           -2.20409074136937        2.31432577472412       -1.17343579908337
C           -1.27338988931715        1.19729581387479       -1.67673283050596
C           -0.00030101317082        1.15242459961744       -0.91095978329050
N            0.64551647318711       -0.03110895551257       -0.59988307845171
C            2.01107104642124       -0.01083702550024       -0.19129418495856
C            2.94963004808139       -0.50016834104574       -1.31425844596708
C            4.37506215473872       -0.40286977385337       -0.87291950425351
C            5.09474320884310        0.75990342337683       -1.07402375187081
C            6.40615232861531        0.84508607755102       -0.62764190089600
C            7.00652155855860       -0.22847922367351        0.03109029943416
O            8.28672389876130       -0.18430502898601        0.50838260130809
C            9.06805522426765        0.96613470418907        0.29922829533057
C            6.27505479582113       -1.45126814136490        0.26484535152297
O            6.89761589061236       -2.49937541001488        0.94505705911156
C            6.40092719071728       -3.81838128273098        1.25221182293969
C            4.97121979023989       -1.47182023887442       -0.19790692015965
C           -0.03467022658736       -1.29282599101674       -0.66217871982308
C           -3.88859082554940        3.07712618645143        0.58522676409050
C           -4.52160596059163        2.77511876250328        1.94218512419517
C           -3.42304346197212        4.53158780700908        0.55122666532253
H           -4.65622252305031        0.94503054480843       -1.31559102129635
H           -6.84655507504433        0.25681006071228       -1.80738012090161
H           -7.16730180171261       -1.18859195308870       -2.79767599094684
H           -5.66130385442169       -0.27095908941662       -3.03725698536267
H           -4.88722692079057       -3.71357371446741        2.41701201002384
H           -5.28830869952731       -4.96735247858074        1.21643576999185
H           -3.61054591481588       -4.38994430884015        1.36383998603710
H           -3.07828975583958       -2.20975991356317        2.11080254733579
H           -2.15860313314886        0.03486590023562        2.01805337055530
H           -3.03717058957930        2.41167296430215       -1.87134904911406
H           -1.65275348940901        3.25584977622510       -1.17922816468013
H           -1.80743422164634        0.25015576633049       -1.62297447836395
H           -1.04473384370511        1.39409802126342       -2.73388775364906
H           -0.70090380452135        1.64845190970954        0.69501932516223
H            0.64245526917264        2.01356575694134       -0.96767124239293
H            2.14010943019935       -0.64844467402778        0.69165979386670
H            2.29116584789688        1.00871285951883        0.08461853621089
H            2.77552456788368        0.12426616465982       -2.19427854069515
H            2.69245288558715       -1.53042303036069       -1.56235873310642
H            4.64441859015313        1.59801035548945       -1.59192289643040
H            6.94352489195273        1.76932746778270       -0.81280144021983
H            8.64753066249957        1.85023693554581        0.79178884508022
H            9.20824774211638        1.17967039559448       -0.76588227448336
H           10.03459221154570        0.73534024614003        0.74701170921730
H            7.21553153964017       -4.34795370729473        1.74823615359603
H            5.54059860179173       -3.80492595135391        1.93461515572103
H            6.11690792071091       -4.38618973406835        0.35800229854905
H            4.38853129446745       -2.36634106254137       -0.03991446098916
H           -0.21508632605852       -1.60102299881614       -1.69875908142840
H           -0.99685842579452       -1.24396638338590       -0.14159994180514
H            0.58415351922510       -2.04704498411914       -0.18091889415911
H           -4.65875916533508        2.95367944004893       -0.18488557891588
H           -3.78894943447814        2.90879021894044        2.72976590142775
H           -4.89504667047756        1.75431424172121        1.97845181418123
H           -5.35280455841286        3.45360241387794        2.12027269620379
H           -2.63569805319203        4.69105991305372        1.28043915884708
H           -3.06373626236881        4.81716038197267       -0.43390067890622
H           -4.25780431615502        5.18256197481215        0.80259421719473
H           -0.63891760183833        2.80487601037178        2.74844792193110
