72
 energy: 72.521747204242 xtb: 6.6.1 (8d0f1dd)
N           -1.67021459873782        2.95269987469705        2.28372776063334
C           -1.66261121104754        2.23739055325284        1.25962938585727
C           -2.80684561354912        2.09587491370522        0.29785761291968
C           -3.34883776787426        0.67497379374827        0.36403527678495
C           -4.31608891218310        0.25913945923936       -0.55425853417206
C           -4.85855276735110       -1.01058072544161       -0.50350013682735
O           -5.80492052060124       -1.49040194653942       -1.34976150101486
C           -6.37430129104216       -0.62169139932828       -2.29638356133359
C           -4.41969295014104       -1.92221968640217        0.48620994681849
O           -5.00332293055232       -3.14707585045865        0.45309428331071
C           -4.66775396219987       -4.08345725378804        1.44711811759679
C           -3.45540236936102       -1.51115314879651        1.38587921090203
C           -2.93173923941568       -0.22435653482433        1.32717959066706
C           -2.23591838897823        2.37552565524528       -1.11823068704819
C           -1.34923778593903        1.25586007714717       -1.69164222720558
C            0.00491665924321        1.18753031206369       -1.09548826631241
N            0.63050430380623        0.07537806908316       -0.71735694890063
C            2.02334668711670        0.10699550155504       -0.31706597528764
C            2.96778408634569       -0.31765893433467       -1.46016311805331
C            4.39803475001098       -0.22375367031456       -1.00248782837465
C            5.14798662268188        0.92755753988868       -1.21137462679363
C            6.45565625882442        1.00576352300918       -0.75352435036744
C            7.03599277956575       -0.04363087101900       -0.07068108829941
O            8.30541173507522       -0.01234143693771        0.42039093846187
C            9.08142926530450        1.13660640703379        0.22049703302731
C            6.28167832491125       -1.28090333213877        0.18395957635719
O            6.67960176458974       -2.30087866288214        0.79631226892289
C            6.75133430921808       -5.09433862356804        1.83294465932582
C            4.95383201772197       -1.27841372084667       -0.33302265877454
C            0.01272152067474       -1.23082580014504       -0.82546283881723
C           -3.97136676573909        3.08105567608203        0.59684773287800
C           -4.62527664159453        2.77274201836968        1.94161022377420
C           -3.54121059129383        4.54516210075876        0.55922748234478
H           -4.65521414841138        0.94797979091803       -1.31000801210084
H           -6.83909613304053        0.24723237834820       -1.81911848815812
H           -7.14097653526003       -1.20394538383193       -2.80490271490812
H           -5.63731449288180       -0.28171899433904       -3.03177831778725
H           -4.90572089832130       -3.71053120494980        2.44787024165164
H           -5.27487640544869       -4.96296797253561        1.23731514807977
H           -3.60908467749247       -4.36130349108184        1.40113911831893
H           -3.11052984019156       -2.17657797262551        2.16080866261284
H           -2.20954133065321        0.07324482421175        2.07231927787417
H           -3.07178008572172        2.52098543970397       -1.80533302063999
H           -1.65920199374541        3.29983365206472       -1.08590729567606
H           -1.87095126770553        0.30505784921480       -1.60077258405288
H           -1.22222043649902        1.46142763762442       -2.76721385789915
H           -0.77713348595590        1.65900442000752        0.92860790772646
H            0.57631350279041        2.10439068611983       -1.03506821534366
H            2.18899060590775       -0.56509341983276        0.53668411785827
H            2.27406097271441        1.12295992289512       -0.00700334096251
H            2.81391533727435        0.35806792677081       -2.30623911156285
H            2.73059453110166       -1.34119281674099       -1.76389110014823
H            4.73072953703270        1.76879910698206       -1.74000121675612
H            7.00562491957981        1.91880054203271       -0.94178859321308
H            8.64033297023433        2.02390424825522        0.68999644172424
H            9.24400034373237        1.34066875333123       -0.84341854074472
H           10.03806204045487        0.91472422218341        0.69451636027131
H            7.75584155166258       -4.95822655286897        2.14627060998538
H            5.97406720168281       -5.03495327729232        2.54043624681724
H            6.54467380818491       -5.61385934695285        0.94256454502671
H            4.37666504857352       -2.18593725820684       -0.18054378191546
H           -0.18333765054941       -1.48580079806079       -1.87135003038022
H           -0.93105010115779       -1.25975943102577       -0.27243232841374
H            0.67711223520518       -1.98904505830877       -0.41712428935439
H           -4.72136390783053        2.93032403159917       -0.18769848137137
H           -3.91617309608182        2.93485314490260        2.74363782880873
H           -4.97514299119738        1.74387919062796        1.98021254201789
H           -5.47576091004350        3.43157118069977        2.09671328854979
H           -2.78128824787659        4.72752286200768        1.31017446458806
H           -3.16291575472516        4.82895177774265       -0.41832135369306
H           -4.39771469326187        5.17694471190064        0.78106790600464
H           -0.81430660249438        2.96986012216603        2.83004853289768
