72
 energy: 19.262088194800 xtb: 6.6.1 (8d0f1dd)
N           -1.55901044647365        2.85047995201579        2.25871976559565
C           -1.59057349458926        2.17420826676740        1.20122310110288
C           -2.76683994807616        2.07359643884707        0.26684889987173
C           -3.32723367061833        0.65973271947689        0.33887708343458
C           -4.30708294624793        0.25054488547866       -0.56783277217754
C           -4.85053486970092       -1.01855925785077       -0.51981584482252
O           -5.81722430670905       -1.49244421990426       -1.35780321886779
C           -6.38732050876081       -0.61494258240689       -2.29505775232860
C           -4.40643655614096       -1.93372047993789        0.45926940074721
O           -5.00160398111425       -3.16200282009170        0.42837027467979
C           -4.66611530456957       -4.09323770563512        1.42334392706505
C           -3.43555858710302       -1.52966384782577        1.35458511404261
C           -2.90518977820236       -0.24582551319026        1.29476262185807
C           -2.21423534706779        2.33002853330382       -1.16125709252372
C           -1.28926982735374        1.21847091402595       -1.68675796166983
C           -0.00705348430762        1.18271114036648       -0.93896406986923
N            0.64657329549667       -0.00428835972416       -0.63629004522154
C            2.01437006985347        0.01594533044906       -0.22466961689452
C            2.96102485494805       -0.45729240958260       -1.34974477880584
C            4.38782148619322       -0.36694676120851       -0.90749603972885
C            5.11573866822799        0.79104571867290       -1.10677042733560
C            6.42775704588804        0.85587221973739       -0.65567837370415
C            7.02135790360055       -0.22519635624528        0.01346652000464
O            8.29992961494767       -0.15184520987968        0.49066848917714
C            9.07023800353241        1.00683512501160        0.27936214497959
C            6.27570809144470       -1.46484964929351        0.25040737574117
O            6.83323710442697       -2.61834943756949        0.96270734889113
C            6.47935542246994       -4.03556718826768        1.35448776196126
C            4.97724593824238       -1.44073316989003       -0.23086030461810
C           -0.02100912524242       -1.27699649616476       -0.70472680399198
C           -3.90914851788701        3.07722420467965        0.58766523114376
C           -4.54800666937027        2.77477100608432        1.94162786089256
C           -3.45279758997034        4.53457471828302        0.55351721378136
H           -4.65386175265804        0.94510779140226       -1.31483043497522
H           -6.84392328030743        0.25466507648668       -1.81006849656243
H           -7.16070782992164       -1.19215797048307       -2.80006601904427
H           -5.65478927064461       -0.27350091899592       -3.03491922101798
H           -4.89119031243805       -3.71270195056547        2.42520636881800
H           -5.28480511523022       -4.96704248206070        1.22232033434246
H           -3.61013676485911       -4.38221160249361        1.37264148820687
H           -3.08624355193770       -2.20100676175310        2.12331858663275
H           -2.17149093076752        0.04611137847042        2.03018985614622
H           -3.04905340523127        2.44013106029963       -1.85562171080196
H           -1.65498501370698        3.26654889488392       -1.15588062077506
H           -1.81593012392538        0.26868730209918       -1.61969530948770
H           -1.08751291236709        1.41201753990710       -2.75143254790948
H           -0.71919702277998        1.64747243365295        0.75304719352882
H            0.63816091885256        2.04088290018124       -0.99698341042729
H            2.15620885811440       -0.62877483391678        0.65374828961693
H            2.28287670702822        1.03566524529470        0.06053969493662
H            2.78595900004179        0.18193801346515       -2.22013106470673
H            2.70321187525355       -1.48410976492637       -1.61263575650228
H            4.67113667440194        1.63485890221176       -1.62419632131549
H            6.96952799226114        1.78236742934717       -0.84136738316653
H            8.64476716749792        1.89190060869795        0.76649329189252
H            9.21656016068636        1.21950578740495       -0.78503460441960
H           10.03609310333029        0.78238588159994        0.73306718676913
H            7.36802202665637       -4.45502628202599        1.83746971741249
H            5.64864539976337       -4.09759398889553        2.07170558428822
H            6.21950596030877       -4.67483256405690        0.50256013879336
H            4.37818786977613       -2.32569774808221       -0.07538774312120
H           -0.20915992786295       -1.57606184269931       -1.74354090260273
H           -0.97882838165946       -1.24700127733034       -0.17392650102571
H            0.60816151184828       -2.03559052338740       -0.24149775295579
H           -4.67452738817306        2.94896471892297       -0.18648517167317
H           -3.82011179516936        2.91532250375423        2.73144904459431
H           -4.91531977453371        1.75162186857579        1.97880241688501
H           -5.38378412598832        3.44904079050966        2.11502519764747
H           -2.67179776768278        4.69725230443819        1.28786446862456
H           -3.08850337813454        4.81864447418806       -0.42988202954158
H           -4.29248826223612        5.18212954972897        0.79791628188207
H           -0.68173786267387        2.84493659517213        2.76782204251890
