72
 energy: 4.918949165074 xtb: 6.6.1 (8d0f1dd)
N           -1.53541993161172        2.82271374416890        2.25182459964497
C           -1.57659533623496        2.16274734847433        1.18424780283176
C           -2.75955046529040        2.06826746018109        0.25936396829693
C           -3.32331616072285        0.65540143125722        0.33371313147051
C           -4.30599176050718        0.24859250330948       -0.57121052416727
C           -4.85037593480305       -1.02029973775945       -0.52413299925918
O           -5.81947088432985       -1.49255313192772       -1.36059450981063
C           -6.39040749218861       -0.61317799466888       -2.29528420948707
C           -4.40379964729602       -1.93678320332794        0.45317139285029
O           -4.99866807025852       -3.16435425693217        0.42171158511316
C           -4.66549278294120       -4.09550659775828        1.41799534310852
C           -3.43123451976366       -1.53429710889110        1.34763923676663
C           -2.89910706795084       -0.25106034517531        1.28792996704251
C           -2.20732042865759        2.31942945537646       -1.16929323527804
C           -1.27816286264152        1.20437143602745       -1.67997254272603
C           -0.00256771818374        1.16257971965804       -0.91848326281536
N            0.64741627142973       -0.02295379299877       -0.61418191202885
C            2.01268696710147       -0.00222316354493       -0.20254439583468
C            2.95376360665304       -0.48596715405676       -1.32616944171499
C            4.37958117840153       -0.39100737919688       -0.88464984424796
C            5.10187344729184        0.77033416360049       -1.08494328085944
C            6.41369651914795        0.84824880833721       -0.63684151947916
C            7.01169262394166       -0.22797869513703        0.02548473878847
O            8.29149170825100       -0.17363261318388        0.50264771926080
C            9.06893157117129        0.97965891629848        0.29269707293878
C            6.27623780730396       -1.45729177303682        0.25973348514190
O            6.87721947842512       -2.53775545888157        0.95013606759108
C            6.42808546914402       -3.88833461064754        1.28563309912532
C            4.97339091326773       -1.46159118632764       -0.20928254983007
C           -0.02987154846631       -1.28768775262499       -0.67647939683993
C           -3.89540030883335        3.07708544788043        0.58598610416921
C           -4.53045019059028        2.77504179543903        1.94193077913142
C           -3.43294931117997        4.53253079272415        0.55196986198745
H           -4.65550518537171        0.94497054996405       -1.31541209180573
H           -6.84556108741045        0.25605323720809       -1.80824057805599
H           -7.16518152049262       -1.18968865536140       -2.79868195538489
H           -5.65904517186968       -0.27186577167004       -3.03634686362659
H           -4.88859577746472       -3.71326470493861        2.41972791223813
H           -5.28714503820371       -4.96734652157577        1.21844836391681
H           -3.61043705345909       -4.38736160581313        1.36677943352624
H           -3.08105011840114       -2.20679594785719        2.11494550339190
H           -2.16300206281797        0.03869110296213        2.02193834359196
H           -3.04104341536277        2.42097662624106       -1.86609274430064
H           -1.65341279506679        3.25936450693600       -1.17139947506598
H           -1.80980631397381        0.25643370704379       -1.62187267947430
H           -1.05827653737385        1.39988292971600       -2.73980161153792
H           -0.70677541986194        1.64749616673561        0.71411485244028
H            0.64109994918887        2.02258623856858       -0.97714317320206
H            2.14574572633526       -0.64210429754730        0.67905043934269
H            2.28821963611095        1.01755172951887        0.07660115140740
H            2.77872734074977        0.14344174035467       -2.20293599724170
H            2.69619176138299       -1.51507595046787       -1.57907427616343
H            4.65316358524696        1.61044859877852       -1.60258479186811
H            6.95213140338521        1.77371643313512       -0.82198116724030
H            8.64687319424459        1.86411126681363        0.78350465622848
H            9.21119145020281        1.19291629166351       -0.77216887805846
H           10.03519396205231        0.75077614993843        0.74245302278028
H            7.26799143532516       -4.38277300282404        1.77815711767871
H            5.57620806716437       -3.90288178822673        1.98007775830983
H            6.15062537351508       -4.48274734213645        0.40619745299028
H            4.38515508538594       -2.35291949906011       -0.05186496506110
H           -0.21337642891102       -1.59300857477871       -1.71368512046303
H           -0.99057320926266       -1.24469530159433       -0.15221403701225
H            0.59223683860663       -2.04349359489726       -0.20115781450935
H           -4.66398354852084        2.95223258075113       -0.18551567145090
H           -3.79937778161805        2.91098882561969        2.73022558813525
H           -4.90183384828637        1.75342796083514        1.97852617148500
H           -5.36315988735192        3.45214178503266        2.11854140347825
H           -2.64772258017587        4.69283963813135        1.28289638546592
H           -3.07195354899709        4.81749278126324       -0.43258192586705
H           -4.26928581640307        5.18253321719281        0.80101460918147
H           -0.65320551928454        2.81765977029510        2.75538219521489
