72
 energy: 71.791345377562 xtb: 6.6.1 (8d0f1dd)
N           -1.69543243923248        2.98485637973611        2.28662132766341
C           -1.66671510480000        2.25264448280453        1.27253285852989
C           -2.81693462048252        2.10429774101413        0.31095622099763
C           -3.35195371410852        0.67961579096939        0.37345371027848
C           -4.31377582209863        0.26027874770532       -0.55013171506594
C           -4.85588617352285       -1.00919737751772       -0.50022828994871
O           -5.80312106063143       -1.49116739093544       -1.34900207913096
C           -6.37162596708664       -0.62397172801102       -2.29782567338443
C           -4.42035254619440       -1.91766097555682        0.49345500501364
O           -5.00424558970007       -3.14371174508563        0.45861930900994
C           -4.67011563220226       -4.08033541223216        1.45275517461940
C           -3.46368270932442       -1.50390860218877        1.39987608739184
C           -2.94127050886879       -0.21621502040237        1.34276010881503
C           -2.24084663853890        2.39364128170391       -1.09773321243726
C           -1.37114577805375        1.26486755055419       -1.67882725053866
C           -0.00966264881251        1.20227712358210       -1.10333057416290
N            0.63584954143754        0.09334047265759       -0.74104697438617
C            2.03031537014249        0.14350350734599       -0.35219486222991
C            2.96612334470461       -0.25948692339850       -1.50413260254322
C            4.38993081538055       -0.16078942045633       -1.03796857020075
C            5.14182715825600        0.99196175261818       -1.24225003824993
C            6.44902888781440        1.07744317385980       -0.78031101907730
C            7.03552174984944        0.03764536555429       -0.09299694869507
O            8.30653860965654        0.05243780644666        0.39437330363467
C            9.08807697291173        1.19722648457498        0.19527569524890
C            6.27921814952652       -1.18988083222329        0.15567392808839
O            6.70007232711138       -2.19007020041338        0.76446431681123
C            6.81535729990135       -5.49973845904624        2.00620812930074
C            4.94886889622873       -1.20720686160919       -0.36265146738018
C            0.02896100646457       -1.21163542263476       -0.87429774416843
C           -3.99329465338009        3.08091381895503        0.60335235911085
C           -4.65715294373077        2.77039098384720        1.94299514106549
C           -3.57807049999571        4.54966925405108        0.56236589125026
H           -4.65013522624302        0.94751825953312       -1.30903392018686
H           -6.83921342481150        0.24476480152887       -1.82235024279309
H           -7.13616437558453       -1.21101170236244       -2.80405055440870
H           -5.63354353108550       -0.28604952931798       -3.03334203416798
H           -4.91429322843342       -3.71077032632655        2.45410584423906
H           -5.27491542593874       -4.95937755273394        1.23676921805999
H           -3.61017416184341       -4.35325889600024        1.41235487365069
H           -3.12317443282602       -2.16742878674957        2.17858332171323
H           -2.22670295371432        0.08108528789236        2.09483570993269
H           -3.07541083712470        2.55509799760920       -1.78177729372814
H           -1.66045947188365        3.31824369795854       -1.06104563547905
H           -1.89528160259077        0.31370137694249       -1.59009063281731
H           -1.25047676080829        1.48466387756264       -2.74551555334946
H           -0.78974908825517        1.66101069146732        0.96559845016001
H            0.53744508083787        2.12661442241018       -1.02497324814384
H            2.19514987939202       -0.53886720780096        0.49133326970103
H            2.27987385614079        1.15904494640033       -0.03006419246457
H            2.81935426180305        0.43104771301446       -2.34066007203912
H            2.73990667953040       -1.28103065341770       -1.82563636712844
H            4.72443990969157        1.82998340748242       -1.77616350839477
H            6.99749621848466        1.98795664857423       -0.97261202299500
H            8.64126095853180        2.08491958987411        0.65872458313958
H            9.25615562728461        1.39664081735780       -0.86928561717068
H           10.03940634560617        0.97577893518913        0.67623951750434
H            7.80650119764401       -5.21974666896579        2.26323974512345
H            6.05926208164970       -5.45562463020895        2.74956528535858
H            6.64670810963151       -6.04275642561260        1.10983521105874
H            4.38821477655996       -2.12166120903380       -0.20388550148222
H           -0.17155751856824       -1.44211288307496       -1.92337374863009
H           -0.90947791138861       -1.26438912508362       -0.31499852947729
H            0.71123855805706       -1.96180528701730       -0.48650412813230
H           -4.73663886681737        2.91717065035046       -0.18561301151413
H           -3.95969516061687        2.94186097622245        2.75490033920325
H           -5.00099690185377        1.73933349750351        1.98152071617172
H           -5.51540471240344        3.42192720264438        2.08483268515641
H           -2.82643633655435        4.74749299031102        1.31900506030696
H           -3.19541445310409        4.83697811558333       -0.41324366554782
H           -4.44392796455733        5.17172363747619        0.77405633676500
H           -0.85835523016232        3.02336353694311        2.86199478908805
