72
 energy: 70.303988093183 xtb: 6.6.1 (8d0f1dd)
N           -1.63374234024105        2.91992784381726        2.28089757236757
C           -1.63601161335316        2.22582221346464        1.24170546807265
C           -2.79165427866211        2.09020795204237        0.28776285418687
C           -3.33995087863178        0.67118144152088        0.35575702189263
C           -4.31200974533295        0.25673110973612       -0.55801198807875
C           -4.85570840796742       -1.01275759447193       -0.50841050484770
O           -5.80884312855863       -1.48978495518589       -1.35115376688123
C           -6.37904381093168       -0.61952496699763       -2.29547005909457
C           -4.41537301703637       -1.92565974417086        0.47791475792551
O           -5.00270851449875       -3.15082853829236        0.44556680617648
C           -4.66693149065491       -4.08641277572176        1.43925362235066
C           -3.44818821306733       -1.51663679016316        1.37545445207389
C           -2.92206475020622       -0.23076954942055        1.31609915940003
C           -2.22973882931036        2.36183342560543       -1.13418879149590
C           -1.32863457706373        1.24796797095652       -1.69659854670257
C            0.00599767830344        1.18358042827392       -1.05192407914728
N            0.62884512651209        0.05450501432328       -0.68854806003604
C            2.02042700206329        0.07541950722949       -0.28746742295861
C            2.96776378896706       -0.36492090407222       -1.42356421416247
C            4.39990186561437       -0.27234198785744       -0.97489555307378
C            5.13826228074154        0.88338006125671       -1.18174654190771
C            6.45090422827822        0.95537799309366       -0.72995878104413
C            7.03555150018660       -0.10205573270266       -0.05822618649133
O            8.30720493383738       -0.05665112028479        0.44189198649433
C            9.07973107122626        1.09421974951950        0.24127922772137
C            6.29113777066575       -1.34356819383242        0.20346518560176
O            6.72612852796099       -2.35807837451825        0.84557180195305
C            6.65035326068672       -4.79067825844805        1.68459768159552
C            4.96826527362980       -1.33081721320267       -0.30333455773374
C            0.00053392914600       -1.24791729385399       -0.78596643880896
C           -3.95077761164090        3.07948387132496        0.59352504105867
C           -4.59991515532093        2.77352412403345        1.94143465458360
C           -3.51223745897448        4.54151899133508        0.55738553936425
H           -4.65383735931546        0.94755637062150       -1.31092070974988
H           -6.84100946169433        0.24984855557428       -1.81619587049490
H           -7.14750682510026       -1.20047043505200       -2.80317792037590
H           -5.64351394469480       -0.27898943705756       -3.03245250735149
H           -4.89996209139457       -3.71103387042074        2.44056100263133
H           -5.27798996009348       -4.96426672918702        1.23226165539592
H           -3.60913057489350       -4.36800795952476        1.39113730571659
H           -3.10200597835845       -2.18404953054994        2.14856439744077
H           -2.19707138213360        0.06582426412942        2.05841130480187
H           -3.06574751243995        2.49477277414583       -1.82344456030491
H           -1.65849239503713        3.28965128319949       -1.10937873423657
H           -1.85142337679384        0.29819983885025       -1.61073625490381
H           -1.17402299306042        1.44549526722254       -2.76952821696873
H           -0.75776506076950        1.65735528753914        0.87260284761748
H            0.60740926090254        2.08402326130405       -1.03866175059150
H            2.18272697942798       -0.58617986833692        0.57525415402409
H            2.27373028755243        1.09302918657768        0.01336426136040
H            2.80368762235231        0.29964077969268       -2.27716973038861
H            2.72313121447188       -1.39009530811318       -1.71282491474923
H            4.70744225411864        1.72584152199486       -1.70382556032561
H            7.00568378585457        1.86837675046969       -0.91603461517862
H            8.64378833073087        1.98132969634887        0.71652428445096
H            9.23748219571036        1.30159596292568       -0.82328763742043
H           10.03933823279204        0.87103570383236        0.70867582186403
H            7.65433576486199       -4.78052594467802        2.04900223494069
H            5.85994131996508       -4.73017722539451        2.38677938330836
H            6.43347837285248       -5.31231116668955        0.79191155358331
H            4.38153902755544       -2.22970056321307       -0.14367177142633
H           -0.19308215477362       -1.51935001169378       -1.82971348843776
H           -0.94769026346766       -1.25738462481443       -0.23953163712396
H            0.65389699182777       -2.00839590379060       -0.36080311520726
H           -4.70539269549265        2.93692614010262       -0.18803917569296
H           -3.88481664152613        2.92874380777579        2.73915205481278
H           -4.95560799482269        1.74647260932690        1.98003370798994
H           -5.44512640536946        3.43819185110825        2.10267795945417
H           -2.74522278469188        4.71638507410051        1.30263413997892
H           -3.13903761568747        4.82486411068157       -0.42236773509633
H           -4.36274382681343        5.17905953254660        0.78737152441615
H           -0.76944563179895        2.93188448366225        2.80773257684325
