72
 energy: 63.990988617152 xtb: 6.6.1 (8d0f1dd)
N           -1.60759341441508        2.89599912159257        2.27299475491238
C           -1.61994458309517        2.21003757173852        1.22804741087943
C           -2.78299732583255        2.08493473323214        0.28077746382156
C           -3.33519757011260        0.66768004449214        0.35003490470745
C           -4.30986810298599        0.25506108216963       -0.56128919427036
C           -4.85374905648489       -1.01403369180031       -0.51123614346548
O           -5.81105785201949       -1.48989440083129       -1.35270598266097
C           -6.38174277335843       -0.61780934350109       -2.29529676056736
C           -4.41253287455590       -1.92798845802030        0.47238805669909
O           -5.00333916005296       -3.15372533773883        0.44105904321087
C           -4.66663571246636       -4.08861658522566        1.43405774039258
C           -3.44372557921858       -1.52069826097679        1.36858660592276
C           -2.91612083062944       -0.23551443533036        1.30875732744121
C           -2.22506024696071        2.35227723677159       -1.14357122694386
C           -1.31599393178450        1.24081427664682       -1.69631809873265
C            0.00302694146985        1.18671597070335       -1.02226349311583
N            0.63150581482582        0.04041248421520       -0.67513728280924
C            2.01946948365874        0.05556940626203       -0.26810285416344
C            2.96679088158685       -0.39650929924440       -1.39695067216053
C            4.40064015609225       -0.30381263100745       -0.95129522464906
C            5.13241598778085        0.84914938542810       -1.15754978874299
C            6.44798383060730        0.91031674770603       -0.70725402433276
C            7.03053616984966       -0.15408576782170       -0.03252605485657
O            8.31036840077168       -0.09096400298784        0.46106571354378
C            9.07435706976044        1.06499910405779        0.25304025258399
C            6.28863943387251       -1.39912240504666        0.22406844297257
O            6.75664233392410       -2.45262035263537        0.88761802322572
C            6.58508956259124       -4.53221500689293        1.56843639800076
C            4.98024084601286       -1.36993166904159       -0.27786994149762
C           -0.00724914376706       -1.25651121810672       -0.76009309284112
C           -3.93702264294690        3.07877824639677        0.59173276640863
C           -4.58273576370691        2.77393679718763        1.94166511959638
C           -3.49271287410679        4.53927259964992        0.55647146464097
H           -4.65265019910006        0.94702835679807       -1.31242265082806
H           -6.84199947676317        0.25161637948342       -1.81427653082061
H           -7.15170440866240       -1.19775240083356       -2.80223110915432
H           -5.64724381380761       -0.27687453467082       -3.03323639297026
H           -4.89679351358113       -3.71178459167326        2.43562181688793
H           -5.28007447287387       -4.96522499746948        1.22872530386270
H           -3.60941439612981       -4.37241570263420        1.38449146554751
H           -3.09680862637467       -2.18939294718846        2.14027696164969
H           -2.18873151471634        0.05975352586391        2.04903370124395
H           -3.06059250116161        2.47718387085175       -1.83436303288421
H           -1.65765763844175        3.28278398881713       -1.12446449188099
H           -1.83852849625575        0.29084618493012       -1.61461533306747
H           -1.14369199850146        1.43464237102610       -2.76621606747163
H           -0.74451014579951        1.65437131981761        0.83347819326420
H            0.62074328389307        2.07172386099914       -1.02660452966881
H            2.17339579694942       -0.60002074300832        0.60049353623627
H            2.27648462654628        1.07366117041784        0.02827596183496
H            2.79981360117403        0.26001024473307       -2.25668204885572
H            2.71822384726932       -1.42224675055055       -1.67902390788063
H            4.69799548916251        1.69336837602543       -1.67838175814669
H            7.00479859603812        1.82521874569580       -0.89349014266975
H            8.64021321726785        1.95166783032616        0.73190919234035
H            9.22650646657482        1.27430141893059       -0.81214275911996
H           10.03766122429110        0.84474404790103        0.71494401744002
H            7.56659364960567       -4.66615940724734        1.97904598473655
H            5.78751345708582       -4.51730606497698        2.28086518702629
H            6.36038231860930       -5.09926226160391        0.69324604519253
H            4.38284316604938       -2.26136612373534       -0.11907568699877
H           -0.19882604928949       -1.53866162386420       -1.80157777288352
H           -0.95831443985908       -1.25391906929771       -0.21811702877190
H            0.63855010072837       -2.01707954699980       -0.32258190637945
H           -4.69510549635720        2.94133184210912       -0.18750269346733
H           -3.86337495958160        2.92423023480431        2.73663360348686
H           -4.94233539266115        1.74817505464121        1.97983456503742
H           -5.42458770695185        3.44203809381575        2.10730892920513
H           -2.72104086733829        4.70962197512214        1.29809384551399
H           -3.12265388261546        4.82286420046264       -0.42453591260289
H           -4.33942002862115        5.18035768728869        0.79157367810985
H           -0.73983179882760        2.90373910064294        2.79362214410064
