72
 energy: 72.273076751669 xtb: 6.6.1 (8d0f1dd)
N           -1.68168762064711        2.98401538883401        2.27552723778274
C           -1.66303935586743        2.24854766133601        1.26324449576965
C           -2.81593154015597        2.10113727631869        0.30667940186935
C           -3.35273346422929        0.67736851144043        0.37177634221498
C           -4.31490166160274        0.25912165879663       -0.55132459818631
C           -4.85746428555395       -1.00979652923473       -0.50067506898834
O           -5.80432093050098       -1.49141862241052       -1.34938543853472
C           -6.37196402365531       -0.62297994178457       -2.29814457039963
C           -4.42079331235950       -1.91881676556710        0.49272783566464
O           -5.00356320912139       -3.14390652908834        0.45822657312709
C           -4.66901807926148       -4.08071065896346        1.45300587660496
C           -3.46143038169752       -1.50620174519142        1.39675225628811
C           -2.93929875338136       -0.21862362384539        1.33923975486830
C           -2.24249294164176        2.39111142270492       -1.10351396281068
C           -1.37067295951484        1.26515150716394       -1.68145197058107
C           -0.00885414124248        1.20260396415422       -1.10558323740062
N            0.63224840712718        0.09347823325326       -0.73772080300735
C            2.02854406583604        0.13572533536028       -0.34422469969436
C            2.96758949123216       -0.27430123796000       -1.49316629025602
C            4.39208424902939       -0.17502117537232       -1.02897477753801
C            5.14493323688578        0.97646860857673       -1.23444539620677
C            6.45178442934596        1.05829697746326       -0.77257042540096
C            7.03563238690914        0.01524248660488       -0.08559071672423
O            8.30714707150042        0.03561698318507        0.40161946815352
C            9.08448213238750        1.18252692596399        0.20051010909977
C            6.27770337813394       -1.21477258635264        0.16344302005333
O            6.67770818510982       -2.22713089184892        0.76956941087843
C            6.81565326702833       -5.39675947229451        1.96742430792723
C            4.94901998463712       -1.22397705656331       -0.35708599653955
C            0.02490659524610       -1.21509385363955       -0.86296299280302
C           -3.98777876203203        3.08091175115764        0.60174929240136
C           -4.64919247930570        2.77105899639248        1.94245087624748
C           -3.56872027910106        4.54845967726571        0.56185621864162
H           -4.65161106847626        0.94735546953182       -1.30895212518923
H           -6.83998202128877        0.24486391234014       -1.82245473398728
H           -7.13613560353766       -1.20930301390047       -2.80520123937978
H           -5.63285330812277       -0.28488012452803       -3.03228389180564
H           -4.91212685484671       -3.71062691818102        2.45377636200982
H           -5.27425771743798       -4.95940696002787        1.23744399863011
H           -3.60962510411617       -4.35512159316342        1.41022941657684
H           -3.11955950419116       -2.16993369051186        2.17434566471697
H           -2.22291217696184        0.08009366025322        2.08919290086876
H           -3.07661476341339        2.54730525715830       -1.78860492047478
H           -1.66264139616786        3.31507869228578       -1.06728560639154
H           -1.89159812531585        0.31194865774866       -1.59241533738330
H           -1.24599506634721        1.48295250973641       -2.74840347780922
H           -0.78746538515596        1.65034436209884        0.95422161914853
H            0.54524466861505        2.12302343031679       -1.03170244791482
H            2.19447390979155       -0.54460720175790        0.50169059086290
H            2.28042769241700        1.15034041460882       -0.02446526022971
H            2.82599008112499        0.41321757115209       -2.33130594001971
H            2.73869033147563       -1.29672023723180       -1.80933338790404
H            4.73227945083024        1.81576188979404       -1.76894669664946
H            7.00082270923463        1.96947937078858       -0.96466622189001
H            8.63781009117165        2.06985498215209        0.66436761545405
H            9.25118751204174        1.38353024808072       -0.86372674328943
H           10.03788130690447        0.96201857934594        0.67995677023998
H            7.81219786072871       -5.14654273281617        2.23600950146320
H            6.05456843181343       -5.34623605543535        2.70188792107371
H            6.63744654797234       -5.93195079384876        1.07160245470837
H            4.38233670203759       -2.13660189027581       -0.20334358123191
H           -0.17458749241801       -1.45414867234156       -1.91119592148004
H           -0.91465219041010       -1.26381590645862       -0.30472283198958
H            0.70208212039880       -1.96926775527726       -0.47088158252268
H           -4.73282412036291        2.92101221324751       -0.18642849339960
H           -3.94878606017570        2.94015505970488        2.75177719923027
H           -4.99469855623084        1.74066854709347        1.98112752826821
H           -5.50536704094181        3.42461437124671        2.08766075826822
H           -2.81496224889983        4.74178201057712        1.31702816516037
H           -3.18728199940976        4.83440323321773       -0.41420481570163
H           -4.43215347578450        5.17303995033115        0.77627196417934
H           -0.84638255263459        3.01658753311396        2.85366380642741
