72
 energy: 72.649536292453 xtb: 6.6.1 (8d0f1dd)
N           -1.68395546245699        2.97483891863090        2.27453506379343
C           -1.66814543299318        2.24092692860547        1.26145650186653
C           -2.81443188573446        2.09788563226047        0.30326219595669
C           -3.35304408345522        0.67612357917891        0.36943286951712
C           -4.31629227435662        0.25919698190045       -0.55250061213518
C           -4.85830621899182       -1.00990493643870       -0.50143479515089
O           -5.80424271581541       -1.49114493190637       -1.34979858245711
C           -6.37253243678072       -0.62233984018047       -2.29769298332718
C           -4.42075193290417       -1.91988466975740        0.49129705976244
O           -5.00242152311150       -3.14422405595285        0.45730926682631
C           -4.66794943881717       -4.08177980331355        1.45181627332488
C           -3.45923445286118       -1.50787856664808        1.39327633916396
C           -2.93703532408857       -0.22047167124091        1.33521169083808
C           -2.24123108397415        2.38538290550357       -1.10803972047748
C           -1.36421117288644        1.26194158872400       -1.68399026964873
C           -0.00325442806229        1.19665494052724       -1.10681830366840
N            0.63000897203005        0.08947586321454       -0.73395092830912
C            2.02513360550112        0.12657939473182       -0.33639849394403
C            2.96695222197139       -0.28905131915002       -1.48236002056457
C            4.39347265390559       -0.19060726563730       -1.02007425501762
C            5.14649903086208        0.96001697860661       -1.22610387949277
C            6.45347670663257        1.03952826041607       -0.76527096211697
C            7.03583700439824       -0.00618828782050       -0.07924003738346
O            8.30740218771004        0.01936477781758        0.40849388958732
C            9.08294387957095        1.16745159558047        0.20664408771470
C            6.27757621583662       -1.23896780318667        0.17120504458587
O            6.66487402014549       -2.26110089126414        0.77580551393663
C            6.80820170716431       -5.29457271953194        1.92668782791310
C            4.95013564037461       -1.24163972317712       -0.35034268968463
C            0.02042845809042       -1.21987345977181       -0.85104504671415
C           -3.98245523312131        3.08107713920054        0.59996718914720
C           -4.64135174245370        2.77167562740980        1.94191151332688
C           -3.55954476447245        4.54728626878189        0.56075778953642
H           -4.65295694021680        0.94800992836713       -1.30946440840303
H           -6.83937665057620        0.24580767074471       -1.82140660796831
H           -7.13737140286153       -1.20712759756060       -2.80544655765259
H           -5.63392931001911       -0.28338874076008       -3.03189241273475
H           -4.90957671656761       -3.71044200482120        2.45228230866312
H           -5.27366349658867       -4.96069417404513        1.23850200258760
H           -3.60899593195862       -4.35721640471392        1.40749256083035
H           -3.11610830141726       -2.17208485885540        2.16985007707128
H           -2.21871034518591        0.07878968663901        2.08321089773392
H           -3.07518242841519        2.53819753890102       -1.79393181768174
H           -1.66124654591997        3.30844912244317       -1.07187797917072
H           -1.88443745571450        0.30915353227440       -1.59490243425465
H           -1.24518058393070        1.47660030411483       -2.75527733166593
H           -0.78581176964595        1.64957690315783        0.96259097528781
H            0.55570983563999        2.11613491869053       -1.03394569125131
H            2.19265138004123       -0.55139191674976        0.51188278410190
H            2.27637999514849        1.14160020863144       -0.02013603983947
H            2.82241583824533        0.39507071299024       -2.32264186213208
H            2.73624449596640       -1.31214221686358       -1.79439419845435
H            4.73638463621738        1.80065732134659       -1.75925577509589
H            7.00248035637787        1.95175725319383       -0.95676489238234
H            8.63941832460465        2.05502153385717        0.67290912101554
H            9.24916508505239        1.37012118060729       -0.85705237730180
H           10.03770461192896        0.94624972542247        0.68422303262828
H            7.80982212602170       -5.07365388207414        2.20860620565783
H            6.03703324923697       -5.24212730188144        2.64626286449756
H            6.61230805988822       -5.82335095682198        1.03473508471193
H            4.37832668734202       -2.15244637602522       -0.19793169592435
H           -0.17804388856624       -1.46515422806102       -1.89844459653033
H           -0.91982276554437       -1.26288422499539       -0.29348764145339
H            0.69399231092721       -1.97619119962064       -0.45459676198611
H           -4.72902287383754        2.92433290648809       -0.18703019051504
H           -3.93803612234733        2.93836262141244        2.74873988282824
H           -4.98850201664296        1.74194353704925        1.98066617419993
H           -5.49541429587519        3.42708190314255        2.09067644480319
H           -2.80371840296186        4.73683083346007        1.31446344005490
H           -3.17932156068866        4.83229215460791       -0.41573790326513
H           -4.42062168733692        5.17428217408102        0.77777603443663
H           -0.83938644177417        3.00190622706775        2.84007646507113
