72
 energy: 71.092485644016 xtb: 6.6.1 (8d0f1dd)
N           -1.68773856773911        2.97392812343678        2.28276172925400
C           -1.65988327019463        2.24272454512779        1.26726012924546
C           -2.81367830542909        2.10282021899396        0.30922109360436
C           -3.35132222486941        0.67974675679880        0.37217302624255
C           -4.31334234031964        0.26067782673874       -0.55102320416596
C           -4.85408918843146       -1.01030562946716       -0.50285977986971
O           -5.80498906995133       -1.49082168020850       -1.34959314075884
C           -6.37305250679595       -0.62272681419197       -2.29691994932140
C           -4.41822044980012       -1.91905130967864        0.48985527644129
O           -5.00342655816575       -3.14539801503039        0.45491463663728
C           -4.67062819816652       -4.08127020889254        1.44895178455845
C           -3.46475962375810       -1.50290682499405        1.40008318068624
C           -2.94143328307938       -0.21560443912436        1.34233351225836
C           -2.24139709700532        2.38807711366927       -1.10592027576931
C           -1.36345519207713        1.26559853090060       -1.68799690920528
C           -0.01656956036260        1.20951105525070       -1.07963146361841
N            0.63222276332586        0.09543995242557       -0.74251728681769
C            2.01968404259621        0.14801380241133       -0.35859082858876
C            2.95988905673697       -0.23848444233956       -1.51628493936739
C            4.38245035617083       -0.13862454142993       -1.05100918013456
C            5.13036053386639        1.01989463080239       -1.25358543199439
C            6.43964379764382        1.11475580425843       -0.79470079338316
C            7.03059210650333        0.07995243392649       -0.10747205814263
O            8.29910183721116        0.08114040445972        0.38314500755278
C            9.10172509711960        1.21538235065221        0.19317881950127
C            6.28235636686638       -1.14954732872495        0.14495314318282
O            6.74704166242506       -2.12481939685326        0.76055778025497
C            6.81371341741451       -5.69998686271843        2.08427292001233
C            4.94832636718622       -1.18129438395389       -0.36628958517903
C            0.03257419935744       -1.20698456818403       -0.88693824282042
C           -3.98978591809977        3.07926837620349        0.60412986219260
C           -4.65855265979395        2.76994736045919        1.94286623500929
C           -3.58105428070537        4.55033753249546        0.56392273890817
H           -4.65129595615959        0.94787818437561       -1.30933904143088
H           -6.83902236752524        0.24742035387534       -1.82172285466153
H           -7.13936612795241       -1.20710051989348       -2.80398980655163
H           -5.63577688843531       -0.28295103334523       -3.03283815079719
H           -4.91274992502424       -3.71069893227902        2.45089508232778
H           -5.27683817954620       -4.96004772106880        1.23430874497546
H           -3.61075836315618       -4.35531601225734        1.41108291030192
H           -3.12229822990542       -2.16764522305180        2.17698658728938
H           -2.22289735819693        0.08139344068172        2.09076543405718
H           -3.07432957572277        2.55739672721826       -1.78781981242115
H           -1.65806370598915        3.30937008689983       -1.06749682125516
H           -1.88309696396835        0.31343867395228       -1.59604644485602
H           -1.24361727340609        1.47385465089042       -2.76174631003341
H           -0.77847716223965        1.66241344166568        0.93501893756693
H            0.53501034691876        2.12975898785115       -0.99647186490066
H            2.18739516614304       -0.53303163282273        0.47876276447048
H            2.26362089340217        1.15845662454218       -0.02669711007067
H            2.78629295653212        0.43858922152541       -2.35439840181351
H            2.74108993991420       -1.25597144877392       -1.84661523417921
H            4.70050236607367        1.85381726206471       -1.78615800776059
H            6.98831200500034        2.02428604939413       -0.98706979019690
H            8.66321569895926        2.10595979567679        0.65810841579122
H            9.27559815460032        1.41698179275513       -0.87054148792225
H           10.05043526807915        0.99230653214266        0.67563231721470
H            7.77469789609422       -5.31974091942203        2.29514086536381
H            6.07827314360827       -5.68041029589153        2.84221683200377
H            6.66865791963503       -6.26252358956816        1.20195864906080
H            4.40764175320195       -2.10425416481033       -0.19639334104736
H           -0.17767248046317       -1.43572627970825       -1.93400280724267
H           -0.90123438645753       -1.26250469955160       -0.32211390887224
H            0.71762764842309       -1.95671685354975       -0.49823383376578
H           -4.73347368951657        2.91742386897977       -0.18504678567881
H           -3.95798994815475        2.94101612621964        2.75331743817613
H           -4.99746182400804        1.73791271339098        1.98109074835516
H           -5.52032631321079        3.41908999211023        2.07951582059165
H           -2.82843090151570        4.74985698568613        1.31975321827128
H           -3.19386831868080        4.83614635737608       -0.41077559640986
H           -4.45115418432152        5.16827011516487        0.77261898838722
H           -0.84141656062847        3.00406909797200        2.84625892205506
