72
 energy: 68.150675445398 xtb: 6.6.1 (8d0f1dd)
N           -1.62064773763720        2.90779560431719        2.27701260886251
C           -1.62783806227901        2.21829695043437        1.23475582391824
C           -2.78728097167399        2.08756803960347        0.28418838881156
C           -3.33747803603599        0.66939080346326        0.35284516698867
C           -4.31088446455192        0.25586025490592       -0.55967620905172
C           -4.85478285964797       -1.01339116418798       -0.50969441872055
O           -5.80988242212700       -1.48982246354815       -1.35179582548764
C           -6.38040048450180       -0.61872463768803       -2.29529534973213
C           -4.41402961635243       -1.92675657797228        0.47538713923586
O           -5.00316850999220       -3.15213793119766        0.44359874425634
C           -4.66672618841036       -4.08753239946603        1.43674068281627
C           -3.44586493919650       -1.51867134847336        1.37207675803594
C           -2.91896649414070       -0.23315545865806        1.31236964404123
C           -2.22761451899300        2.35723304237228       -1.13907880737731
C           -1.32254333741303        1.24473173779865       -1.69722879515941
C            0.00473873813300        1.18525488561959       -1.03848934783912
N            0.62952673926500        0.04887670567251       -0.68230753097664
C            2.01988985470439        0.06604904954760       -0.27801607621912
C            2.96786018337681       -0.38036743596839       -1.41036631687406
C            4.40094952678388       -0.28766043783053       -0.96354369535224
C            5.13522200326081        0.86674558815034       -1.16980569496266
C            6.44950337179533        0.93279111210529       -0.71863440572112
C            7.03392700445631       -0.12910032920171       -0.04848775177706
O            8.31002519111703       -0.07390764295457        0.45102640067676
C            9.07678458427951        1.08004257557383        0.24698290083266
C            6.29155247419947       -1.37167347677400        0.21231269901970
O            6.73883998541799       -2.39817064801676        0.87291888794242
C            6.61706408354259       -4.66665645684230        1.62656814327661
C            4.97591948984974       -1.34954665814879       -0.29057118185142
C           -0.00314458162680       -1.25180031494791       -0.77301748406906
C           -3.94394835482246        3.07915294725024        0.59252793805486
C           -4.59129537787764        2.77368925109258        1.94147631772833
C           -3.50243908255502        4.54037657389155        0.55680960216443
H           -4.65324781074890        0.94732231609383       -1.31162369662581
H           -6.84145181624379        0.25066609291609       -1.81511722868659
H           -7.14961169949696       -1.19916873895809       -2.80262257993728
H           -5.64537367569765       -0.27801765285797       -3.03276023242575
H           -4.89822833219582       -3.71152479925997        2.43821942444890
H           -5.27895858447117       -4.96479547697420        1.23057333257028
H           -3.60921643350146       -4.37026711759680        1.38779646442020
H           -3.09936674508325       -2.18670116897511        2.14449929950897
H           -2.19286020179708        0.06282790956582        2.05369492278756
H           -3.06350947545039        2.48608849439759       -1.82894338157835
H           -1.65843415693896        3.28643576695017       -1.11699979987906
H           -1.84526120494429        0.29496613103210       -1.61282128078649
H           -1.15891389749144        1.44007113216326       -2.76851973950744
H           -0.75101893444276        1.65597923674028        0.85298751121369
H            0.61473786131163        2.07796417039050       -1.03411788639173
H            2.17827599531673       -0.59268984905368        0.58739072665403
H            2.27519906204202        1.08376474160318        0.02062421769970
H            2.80241820407435        0.28088253915401       -2.26647707145405
H            2.72091460851325       -1.40563620209809       -1.69643462619447
H            4.70246295451626        1.71010974254854       -1.69117437168086
H            7.00572190095903        1.84656156547667       -0.90440948788211
H            8.64141640526493        1.96689233106947        0.72388371639594
H            9.23155198019050        1.28853133019374       -0.81807230632008
H           10.03857338290466        0.85900374134285        0.71134563241670
H            7.61167553308642       -4.72506992875215        2.01482446826437
H            5.82325402624909       -4.62502344257897        2.33403745853100
H            6.39659014206388       -5.20913709158311        0.74187372043455
H            4.38346169854749       -2.24503046342317       -0.13175063313965
H           -0.19569590875013       -1.52890607998242       -1.81549300499651
H           -0.95264931822872       -1.25559145024062       -0.22861452584701
H            0.64677681302405       -2.01223926022780       -0.34175757749923
H           -4.70028957404210        2.93917854893204       -0.18786949443534
H           -3.87400768349879        2.92641275621902        2.73778076256419
H           -4.94895180386348        1.74728621674040        1.97984649591973
H           -5.43477916788319        3.44011625475867        2.10500740296026
H           -2.73306331410116        4.71290760725788        1.30023586846150
H           -3.13082371207365        4.82380281633302       -0.42359534313574
H           -4.35096317207778        5.17977852271379        0.78939279057138
H           -0.75471223463295        2.91803494275904        2.80062484939917
