72
 energy: 71.250724070207 xtb: 6.6.1 (8d0f1dd)
N           -1.64713532973734        2.93236337802967        2.28474713311846
C           -1.64479523315123        2.23314376106943        1.24886589377234
C           -2.79628827825577        2.09269762952057        0.29139954921426
C           -3.34254247754442        0.67276163007887        0.35875624866167
C           -4.31315460296831        0.25748896889571       -0.55636743375786
C           -4.85629067920780       -1.01234148306337       -0.50691825091875
O           -5.80760079511980       -1.48994709819393       -1.35045381791675
C           -6.37744405725531       -0.62032397674963       -2.29555385022633
C           -4.41650942157655       -1.92507044397506        0.48039430227661
O           -5.00226381407928       -3.14983544868231        0.44751593617406
C           -4.66702821449816       -4.08553142953066        1.44174025173436
C           -3.45048204212290       -1.51482688325033        1.37889880413668
C           -2.92520702027394       -0.22856099949102        1.31992611138345
C           -2.23185087326883        2.36614721915944       -1.12913304962283
C           -1.33479960184959        1.25036510450524       -1.69480344112921
C            0.00590675349872        1.18305455162019       -1.06453011117230
N            0.62902553094166        0.06050712022712       -0.69584426915521
C            2.02135043046761        0.08570651642506       -0.29673713627826
C            2.96741079133498       -0.34864759063494       -1.43618673385736
C            4.39833680424822       -0.25601683356631       -0.98521300633178
C            5.14168937548937        0.89882156871160       -1.19215055484567
C            6.45263718673337        0.97518598924437       -0.73935074157444
C            7.03529220161524       -0.07747134332578       -0.06353350560521
O            8.30405864122786       -0.04108938030746        0.43403486393203
C            9.08022745771121        1.10817067726045        0.23428514963725
C            6.28699612565326       -1.31622315974663        0.19390903511400
O            6.71597096556364       -2.32667423074036        0.81496544810628
C            6.69006742173795       -4.89887629961081        1.73982583298186
C            4.95987183131236       -1.31278408922986       -0.31504888296308
C            0.00450664084095       -1.24309195086531       -0.79889651937131
C           -3.95764665297322        3.07986809900766        0.59447953203754
C           -4.60830760370860        2.77328285427848        1.94142039158328
C           -3.52179356105729        4.54260632236970        0.55787136370337
H           -4.65456411462531        0.94743653598474       -1.31049665648520
H           -6.84040759936442        0.24897308877757       -1.81716204305413
H           -7.14520331171149       -1.20167400791552       -2.80367215086518
H           -5.64144857018147       -0.27993927723358       -3.03208051620945
H           -4.90160398206217       -3.71076927591106        2.44284958904428
H           -5.27690007684509       -4.96389469983723        1.23389291343869
H           -3.60894056431780       -4.36588240895822        1.39435125312685
H           -3.10464154472616       -2.18148876306532        2.15276210275555
H           -2.20123379681127        0.06856609815396        2.06320836836995
H           -3.06797597981881        2.50282433712828       -1.81778472898746
H           -1.65888184725541        3.29282199123817       -1.10214792449625
H           -1.85769012228240        0.30076420710270       -1.60758011398191
H           -1.18983362522096        1.45027840598757       -2.76971005332816
H           -0.76508152861848        1.65825981328398        0.89282557306718
H            0.59781369668866        2.08908805114024       -1.03659330614731
H            2.18667130683807       -0.57905874352050        0.56313820574369
H            2.27312519693059        1.10300309103430        0.00672541365600
H            2.80632864868465        0.31944653930773       -2.28725830625163
H            2.72564182907685       -1.37365865754613       -1.72940386838302
H            4.71514306326229        1.74085648576801       -1.71564902596129
H            7.00630816049712        1.88723518113145       -0.92530000078703
H            8.64266969724401        1.99553609268537        0.70733935719731
H            9.24016622738720        1.31424394208162       -0.82992089312657
H           10.03865802179253        0.88569883523957        0.70431616358972
H            7.70133272773944       -4.83349225732334        2.08274611776432
H            5.90024781381458       -4.83110683460461        2.43786563463131
H            6.47210247327780       -5.40821684673269        0.84259137577478
H            4.37895778448031       -2.21560981478313       -0.15683224387225
H           -0.19008751293340       -1.50906708704762       -1.84373472740784
H           -0.94248493007700       -1.25806951657287       -0.25050571668206
H            0.66114623885367       -2.00325732091419       -0.37932076393447
H           -4.71058569419357        2.93463608425750       -0.18817721494154
H           -3.89522700847380        2.93101955689594        2.74044752260951
H           -4.96190807077917        1.74554798013628        1.98024426068665
H           -5.45530606861081        3.43603569065253        2.10051515019721
H           -2.75719065426888        4.71974329482579        1.30504682270812
H           -3.14679690514744        4.82586611668517       -0.42115724451951
H           -4.37422639343248        5.17836901147284        0.78511651760143
H           -0.78461528996241        2.94559448184364        2.81591243735051
