72
 energy: 57.109224147036 xtb: 6.6.1 (8d0f1dd)
N           -1.59534657851746        2.88507768769540        2.26919571159531
C           -1.61215196339821        2.20080738425163        1.22153508702689
C           -2.77881095420531        2.08216323237876        0.27736109691248
C           -3.33302531846142        0.66584612956012        0.34721927138682
C           -4.30889389482556        0.25392927217902       -0.56282923833210
C           -4.85230532297361       -1.01518647482990       -0.51322172276226
O           -5.81247905461375       -1.49051403419218       -1.35387404950623
C           -6.38299261989165       -0.61705143508641       -2.29514893150759
C           -4.41083334659927       -1.92926058606716        0.46915633777979
O           -5.00334507977836       -3.15600397012859        0.43820132381107
C           -4.66650250031630       -4.08983957094711        1.43138683699979
C           -3.44159538776960       -1.52286018343639        1.36508892020904
C           -2.91339450596347       -0.23801928548936        1.30522610081543
C           -2.22295995799477        2.34686956787504       -1.14830119228787
C           -1.30941513452770        1.23638982252023       -1.69496158843451
C           -0.00130261659369        1.19084542551735       -0.99979675711540
N            0.63568972074926        0.02929867866618       -0.66560579389428
C            2.01885157603481        0.04514318296015       -0.25777325944235
C            2.96564004707131       -0.41232608726833       -1.38455108754457
C            4.39863978121157       -0.32104270980441       -0.93996581885542
C            5.12904838234638        0.83218885682553       -1.14427512981585
C            6.44436958501333        0.89192912559708       -0.69400585135195
C            7.02903167298458       -0.17867048162882       -0.01813588321816
O            8.30910422278397       -0.10784513745066        0.46901790313247
C            9.07359310708247        1.04980917801297        0.25972170022380
C            6.28443341271791       -1.42474681313902        0.23514552956295
O            6.77100617103096       -2.51882626675658        0.91190010280135
C            6.55388488672660       -4.38705094555876        1.50590457834863
C            4.98226068001590       -1.39027811200312       -0.26543423855869
C           -0.01045409430991       -1.26125225010411       -0.74640795498060
C           -3.92997209668587        3.07832893126772        0.59069151511990
C           -4.57407450998021        2.77419317111956        1.94160878928463
C           -3.48262554201735        4.53807421051411        0.55574229851258
H           -4.65239702992022        0.94624904418506       -1.31315859204938
H           -6.84230600052895        0.25250315857552       -1.81318733748578
H           -7.15388376222317       -1.19623207021865       -2.80172206257120
H           -5.64902960409445       -0.27589165237806       -3.03357102923817
H           -4.89528320518068       -3.71208657886213        2.43307664375165
H           -5.28122303824340       -4.96582379703050        1.22714993567415
H           -3.60954727209468       -4.37486517601880        1.38141101630032
H           -3.09409163172847       -2.19230547788097        2.13599003631289
H           -2.18440888470960        0.05645843517966        2.04419898368551
H           -3.05843708595684        2.46805392631789       -1.83975311801404
H           -1.65727113654821        3.27877622687102       -1.13249327967619
H           -1.83172927475508        0.28593738252741       -1.61582583501180
H           -1.12995668267881        1.42902401807859       -2.76379158161426
H           -0.73840020459180        1.65207965655424        0.81384160736484
H            0.62629773106862        2.06581583937825       -1.01988628154274
H            2.16931027159118       -0.60743461808240        0.61409133564253
H            2.27808984833731        1.06375045965205        0.03647682581156
H            2.79621858566094        0.23988753186632       -2.24722299569222
H            2.71417456828879       -1.43810002076733       -1.66260357383179
H            4.69136212852721        1.67727029740788       -1.66334473930471
H            6.99520512482931        1.81264067196817       -0.88032339875850
H            8.64173606635838        1.93586815108566        0.74114144456476
H            9.22428943950919        1.26009859345666       -0.80509258414841
H           10.03745247253459        0.82802544315138        0.71967079657519
H            7.51664686071160       -4.60503109909586        1.94096893255578
H            5.75257638107297       -4.40702309193158        2.22525766774578
H            6.32385482754268       -4.98794767151916        0.64548742633429
H            4.38116502741414       -2.27816962746058       -0.10834893594659
H           -0.20145140216726       -1.54822041560024       -1.78727460506160
H           -0.96329694280032       -1.25217927771732       -0.20693990522389
H            0.63117874136109       -2.02166268060049       -0.30239775276037
H           -4.68994328829114        2.94346417057733       -0.18731967854498
H           -3.85246043336260        2.92195625234988        2.73512254564252
H           -4.93556030606374        1.74902870647604        1.97950128480573
H           -5.41436030899748        3.44390809195189        2.10937235212371
H           -2.70853887681011        4.70617643357069        1.29547602946715
H           -3.11394909383333        4.82160513270456       -0.42588142495870
H           -4.32746126059456        5.18101038999437        0.79320312270608
H           -0.72510993254386        2.88879036127561        2.78641232952617
