72
 energy: -99.319296556494 gnorm: 0.008817012700 xtb: 6.6.1 (8d0f1dd)
N           -0.88688326779171        1.45884799235781        0.72682235135328
C           -2.07698532833283        1.83974757619216        1.15348025620428
C           -3.24334393695569        2.00598823759013        0.25194647559001
C           -4.06459895767033        0.75207346189791        0.40437223591464
C           -5.10100352640237        0.09089994289426       -0.50726576510319
C           -5.24620410055799       -1.01475506846780        0.61408184673261
O           -4.54753153816225       -0.30599064218394       -1.72354630207089
C           -5.39248737512732       -1.16659473199337       -2.46058519692585
C           -4.31801139760515       -2.18634605984865        0.88596367750676
O           -4.41157525800847       -3.41455332825517        0.40333981594354
C           -3.43105112788822       -4.34309143068868        0.83473146395041
C           -3.47791321904270       -1.48486394786355        1.70146927667425
C           -4.14536443281027       -0.24168758975195        1.33300722650013
C           -2.76608667890975        2.11764398355743       -1.20589329184454
C           -1.77164630027307        1.00510056725563       -1.51358694901159
C           -0.50947328167355        1.17413631998937       -0.67340923146922
N            0.36342877654160        0.05108832649683       -0.74862731701418
C            1.74312707109904        0.23914303278356       -0.34960010442408
C            2.69779360897374       -0.45670585821324       -1.33675840770223
C            4.12329950140604       -0.24176277917861       -0.91839596784798
C            4.74929630629711        0.97381110650363       -1.15307102994498
C            6.04815875761066        1.19993748708288       -0.72757524101443
C            6.75446519346303        0.21027174379087       -0.05769062047884
O            8.01466976644686        0.32099958858856        0.40490713523088
C            8.71370136621994        1.52820517539990        0.20914220570725
C            6.12786055301638       -1.04453766944283        0.17607973646535
O            6.88830877772835       -1.95550857484368        0.81691194145072
C            6.37485867363464       -3.24699524989723        1.03944309939688
C            4.82341202114865       -1.24268442513408       -0.25112767746709
C           -0.21209563286562       -1.24202713996333       -0.43001417442501
C           -4.11716226768289        3.23780085251344        0.65815756484784
C           -4.70420968298201        3.09771744025844        2.06216952837724
C           -3.33608036856041        4.54777861671996        0.56603747476055
H           -6.05156143269394        0.62400490975454       -0.66076993551360
H           -6.34264159778637       -0.67591544760034       -2.69578724093580
H           -5.59227615568043       -2.08864090181218       -1.90612475535265
H           -4.86237356713642       -1.39764162100347       -3.38148998979128
H           -3.44203880255599       -4.44005817442474        1.92294314411579
H           -3.69037923493837       -5.29449712435984        0.37611441410831
H           -2.43493888594595       -4.03222934264483        0.50769531769112
H           -2.60044992824479       -1.70667604019305        2.27744248705266
H           -6.23815546039980       -1.10733772013885        1.02267563103266
H           -3.62165962200171        2.03075651387566       -1.87234958092427
H           -2.29348795812593        3.08526287806941       -1.36814112436283
H           -2.24641978351354        0.04860367961022       -1.30843639000687
H           -1.49105996253622        1.02473888566682       -2.56552866963621
H           -2.21756418842702        1.93645714494669        2.21813885188673
H            0.04644762209632        2.05289978311167       -1.03411151765492
H            1.93512566372667       -0.14981032588396        0.66212165517789
H            1.97213721456437        1.30693175322410       -0.34662618768529
H            2.52689468788894       -0.03973869880050       -2.32979141090141
H            2.47169453307036       -1.52198866286226       -1.37250922928918
H            4.22494432575517        1.75463926727813       -1.68257367038891
H            6.50736447658322        2.15419094588743       -0.92752443031415
H            8.21144037116873        2.36622628530984        0.70231329831088
H            8.83781450663297        1.75144028110434       -0.85473494461536
H            9.69134824263033        1.37642768380786        0.66246043871454
H            7.17517485516490       -3.79946326187674        1.52801373535692
H            5.49916900266478       -3.22402989399224        1.69611057529928
H            6.11432740210746       -3.74231757080109        0.09898984506497
H            4.33895313197249       -2.19069246227858       -0.07657032727206
H           -0.63515548855709       -1.69709201895797       -1.32744495724460
H           -0.99979537354341       -1.16267230276563        0.32639738926348
H            0.56363163197682       -1.90188387972422       -0.04879721901108
H           -4.94535200360189        3.26899252521701       -0.05635020414011
H           -3.94422444307457        3.24949263577203        2.82452250573937
H           -5.15623141522700        2.12014992912109        2.20766830910372
H           -5.47290324267954        3.85168548081768        2.20946842243384
H           -2.40237294582877        4.47992162836633        1.12130787474251
H           -3.11509638672293        4.82038548497566       -0.46164808344314
H           -3.92883356297282        5.35081352647589        0.99619294061251
H           -0.14765332287799        1.31971679414449        1.40308183947647
