25
 energy: -42.103017705580 gnorm: 0.003576571239 xtb: 6.6.1 (8d0f1dd)
C            3.25292908394560        1.24112325939536        0.01949155121019
N            2.31920769186560        0.14751902066161        0.04823299982040
C            2.61047771223405       -1.14792101629338        0.08277635508728
N            1.47549509171208       -1.87714799590190        0.11950065884391
C            0.41500975983672       -1.00512180670413        0.10259434485246
C            0.95107192266252        0.27598913091847        0.05870750543172
C            0.12216432532353        1.46133227853608        0.02000540955643
O            0.51907066973517        2.60344592241044       -0.01542685905886
N           -1.23674805406576        1.12626832574897        0.02377623914914
C           -2.19136972493584        2.22987756220636       -0.02646407534240
C           -1.81006182579037       -0.11409359495360        0.06061174580317
O           -2.99107085519142       -0.30692082114407        0.04740861093116
N           -0.91387673914056       -1.26572293062695        0.12130334338543
C           -1.47218849910054       -2.48322775064153        0.19282044559637
H            3.77414276111738        1.31912639317819        0.97462894470768
H            3.98899901832885        1.09057270937653       -0.76975944676744
H            2.70426153290037        2.16538897112956       -0.15806094550206
H            3.59947456573716       -1.56384479803882        0.08197188601550
H           -1.62944335786301        3.16027894662230       -0.01784418241048
H           -2.79025240638345        2.15936153230032       -0.93344555215715
H           -2.85673166242784        2.18099194500515        0.83395020030136
H           -0.87094421295434       -3.36471868477283        0.24350324989407
H           -2.70203373948122       -4.79599024634865       -1.42430479761692
H           -2.54341954243114       -2.53246648687021        0.20934470947965
H            1.43626799846645       -2.88586132359374        0.13584927668929
