  25
        -42.22246858
 C          2.9458506490        1.3641283172        0.0030513087
 N          2.1352851159        0.1808292237        0.0050361127
 C          2.5466119586       -1.0831821036        0.0023506787
 N          1.4746072892       -1.9121812180       -0.0020901382
 C          0.3493620321       -1.1436516691       -0.0032440315
 C          0.7649241748        0.1772730680        0.0015842187
 C         -0.1982587576        1.2426546215        0.0011377043
 O         -1.5163071143        0.7712615857       -0.0021366703
 N          0.1102365056        2.4568515030       -0.0004270179
 C         -0.8002170469        3.5496099721       -0.0014576670
 C         -1.9385176006       -0.4972616892        0.0001376427
 O         -3.0945852748       -0.7661111103        0.0062656323
 N         -0.9485260444       -1.5143256433       -0.0050776541
 C         -1.3524727620       -2.9063945911       -0.0073583122
 H          2.6267390911        2.0243242007        0.8091308977
 H          3.9925702642        1.0976218383        0.1263578857
 H          2.8097941492        1.9043210952       -0.9345277087
 H          3.5673944230       -1.4080303975        0.0034137666
 H         -0.3654973664        4.3343712615       -0.6206137678
 H         -1.7983969813        3.2874728566       -0.3568691236
 H         -0.8755786114        3.9340183950        1.0177441485
 H         -1.0028890716       -3.4063883148        0.8966106116
 H         -0.9654992863       -3.4124924730       -0.8923562111
 H         -2.4408921483       -2.9331028603       -0.0290211366
 H          1.5144223663       -2.9211861826       -0.0045904358
