25
 energy: 0.000000000000 xtb: 6.6.1 (8d0f1dd)
C            3.23720163006194        1.16630919979326        0.08434469647475
N            2.29877817382611        0.07527477071623        0.03981603040599
C            2.58028210190900       -1.21425402444508        0.03006176031096
N            1.43813958087363       -1.93419271955128        0.00098261760884
C            0.39035688448383       -1.05887472636071       -0.00790371836672
C            0.93510056364412        0.21347819449412        0.01709077491437
C            0.09450143893243        1.40504303904423       -0.00410947031874
O            0.49712751527797        2.54126714362870       -0.00342325688240
N           -1.25076640035757        1.06271879480407       -0.03085478223738
C           -2.21907211982101        2.15522099834493       -0.05001256985998
C           -1.81739487048744       -0.20012725993278       -0.04692818574614
O           -2.99983886758376       -0.37846417018721       -0.07008878229737
N           -0.92618586207120       -1.30210215599479       -0.03682761578324
C           -1.46982264913417       -2.64643102187190       -0.06029820460571
H            3.71247264356769        1.21471455160235        1.06488849150277
H            4.00791497605742        1.03430808813993       -0.67357694370751
H            2.69910007168542        2.09770118228144       -0.09130154882931
H            3.56654120610678       -1.63682992603973        0.04233140067262
H           -1.67107961066214        3.09322851271934       -0.02552706933167
H           -2.82428953597071        2.09428624779827       -0.95318082946668
H           -2.87644029173232        2.07745725625962        0.81450067533302
H           -1.17061996399332       -3.19584890659852        0.83242232437030
H           -1.14560257411436       -3.17511610292205       -0.95688275822323
H           -2.55549792440841       -2.55659984320617       -0.07459039797972
H            1.38130855184625       -2.94313852034425       -0.01389874181052
25
 energy: -3.178748310390 xtb: 6.6.1 (8d0f1dd)
C            3.22730221480255        1.17916320125620        0.07385382991311
N            2.29877294016504        0.09148865537243        0.03255186463207
C            2.59685656903441       -1.23412652826377        0.03169015386382
N            1.42902143800600       -1.94815941329597        0.00658813696142
C            0.39295013408813       -1.06879057550293       -0.00715485184604
C            0.92168934002835        0.21157905447988        0.01203024001317
C            0.09504530988807        1.38440101289865       -0.00601746566145
O            0.49078853411494        2.54976366243672       -0.00911795108348
N           -1.26544140636774        1.04819195241050       -0.03267863484028
C           -2.18562544270200        2.18878727918983       -0.03299915569626
C           -1.82844044118637       -0.21185982578825       -0.05716149826340
O           -3.02402778318791       -0.40221370393069       -0.07931217029928
N           -0.93695897337831       -1.31622006709869       -0.03725992174877
C           -1.46145974463085       -2.66659828596670       -0.05228899210685
H            3.70264000288495        1.23553680120280        1.05642501955178
H            3.99694641085691        1.04236022983473       -0.68687248733435
H            2.67524306385176        2.09915307050435       -0.11031136111652
H            3.57750939832674       -1.65317394661273        0.04569541613429
H           -1.65723270160993        3.16980923093989        0.05394771756286
H           -2.73890537499684        2.20981371575598       -0.94544801251339
H           -2.93772904633341        2.04002254182919        0.74331667983829
H           -1.15629452015281       -3.21079235394149        0.84427755809113
H           -1.12240493457279       -3.20331042109590       -0.94124092322195
H           -2.54766811237191       -2.59337618722939       -0.07247683067121
H            1.36963779337923       -2.95242049721263       -0.00300246401141
25
 energy: 2.202206517244 xtb: 6.6.1 (8d0f1dd)
C            3.20777499254835        1.19092743039180        0.05387144962178
N            2.29211895154440        0.10327068760106        0.01886626138098
C            2.60887719611599       -1.25524254170917        0.03490582693560
N            1.41600054750615       -1.96118253705304        0.01576584473262
C            0.39311501940136       -1.08366003671292       -0.00437925948921
C            0.90214264466375        0.20472129045978        0.00327881269332
C            0.09464289915545        1.35179354697339       -0.01244738878594
O            0.47356733000877        2.53941018553991       -0.02437559570054
N           -1.28850393419513        1.03460979019682       -0.03094700717639
C           -2.14546813619011        2.23535553111801       -0.00523333914836
C           -1.84114547730627       -0.22425799725279       -0.06269353628175
O           -3.04274856490503       -0.43596754744449       -0.09160040116120
N           -0.95100603873886       -1.33217215570081       -0.03519470029222
C           -1.44612653285084       -2.69421609952030       -0.03879906820557
H            3.68376470887486        1.26760172051824        1.03730747748855
H            3.97919848804162        1.05473798292218       -0.70731875957465
H            2.63937349053837        2.09860033578680       -0.14236473541812
H            3.58474831583062       -1.66617846137938        0.05102514740993
H           -1.62974805106215        3.25747075887490        0.21335143995791
H           -2.58669762491074        2.41734225405501       -0.96893810143443
H           -3.04079649314174        1.97456437188851        0.62756029765989
H           -1.13342488155574       -3.22899559900951        0.86443147469004
H           -1.08452256037890       -3.24352003526561       -0.91518522240006
H           -2.53366588160525       -2.65310025730796       -0.06880611896644
H            1.36074426054730       -2.96288401579839        0.01495309761153
25
 energy: 10.999183494914 xtb: 6.6.1 (8d0f1dd)
C            3.18482819013338        1.19815783674227        0.03445449092468
N            2.28195591961661        0.10332375690191        0.00667746141367
C            2.61039220800199       -1.27039576137045        0.03781383116115
N            1.40778962667628       -1.97231915876963        0.02364451247118
C            0.38975812830898       -1.10026396614347       -0.00151072310052
C            0.88625440270283        0.19341411688887       -0.00517230395569
C            0.08820185245164        1.32922006094201       -0.02291338910989
O            0.45399624956887        2.52508767037564       -0.04343114266733
N           -1.31256049219422        1.02953322353010       -0.02336675035692
C           -2.12172067759181        2.27169555388805        0.02350552519138
C           -1.85390164341180       -0.23454048213989       -0.05964921483379
O           -3.05415006938122       -0.46882868582042       -0.09899699865826
N           -0.96140363266691       -1.34566000043940       -0.03216393931747
C           -1.42964514185078       -2.71960273710505       -0.02782098662972
H            3.65928820806433        1.29702473495514        1.01805012952160
H            3.95993338831520        1.06691493125622       -0.72450097236958
H            2.60350669666107        2.09660475374075       -0.17300181558034
H            3.58705365033743       -1.67303317095310        0.05564580239091
H           -1.61315131803746        3.31213695299497        0.36615423528171
H           -2.42099842508206        2.61937948309177       -0.98248418064405
H           -3.12039151036259        1.93834171649387        0.50406456084260
H           -1.11154914428179       -3.24328891064859        0.88232128359766
H           -1.04486999863734       -3.27621629317125       -0.89254485875028
H           -2.51801492314118       -2.71298252314785       -0.06930009180198
H            1.36161312373686       -2.97467449992046        0.03155943112656
25
 energy: 15.942681405434 xtb: 6.6.1 (8d0f1dd)
C            3.16291187129699        1.20037873344730        0.02281620888968
N            2.27129517319585        0.09429068784188       -0.00028218691539
C            2.60358102898517       -1.27829534793059        0.04026321138437
N            1.40405891803978       -1.97998592186894        0.02824112023412
C            0.38372465894084       -1.11442472623197        0.00012568663398
C            0.87625212396124        0.18087114696391       -0.01161153763312
C            0.07948636422941        1.31855493155131       -0.03594658120542
O            0.43742694762305        2.51011118285795       -0.06400254296610
N           -1.33142373918416        1.03373871788273       -0.01159043268471
C           -2.11160314907162        2.29719341458046        0.04355850520571
C           -1.86461602254112       -0.23963510891189       -0.04901301880890
O           -3.05795157292390       -0.49306136070892       -0.10112633801948
N           -0.96788750096645       -1.35407074515619       -0.03022273053590
C           -1.41565089652934       -2.73829140294116       -0.02496066360988
H            3.63272158312347        1.31768766450211        1.00664897631452
H            3.94294688246894        1.07672546315042       -0.73182477075923
H            2.57244745185650        2.09242573433501       -0.19311785598657
H            3.58443368646528       -1.67431102841094        0.05960563347243
H           -1.62005158378869        3.34369567647183        0.45140914775363
H           -2.28950250291833        2.73822769797278       -0.94326055164793
H           -3.13972071627141        1.95336846332214        0.39800408778939
H           -1.09615652754054       -3.25338280188430        0.89038739821825
H           -1.00959439458485       -3.29521137353178       -0.88087200421702
H           -2.50347705456150       -2.76278808835277       -0.07870712519881
H            1.36856363863169       -2.98478300677837        0.04251226043966
25
 energy: 16.779361911166 xtb: 6.6.1 (8d0f1dd)
C            3.14892100174454        1.19799874051961        0.01354435149305
N            2.26404334161269        0.08113334111525       -0.00517342507394
C            2.59126341508977       -1.27435975526095        0.03772674399580
N            1.40660432003076       -1.98150969292110        0.02981928610495
C            0.37641129293004       -1.12190935468491        0.00176019823459
C            0.87416992458643        0.17181310506003       -0.01293391740963
C            0.06956082345886        1.32071681191130       -0.03837518484326
O            0.42441268006210        2.50122854230869       -0.08129351181739
N           -1.34054640093762        1.04097786806358        0.00885698880440
C           -2.12222313755586        2.29947456466170        0.05466496267766
C           -1.87295172590580       -0.24093739712225       -0.03696987474064
O           -3.05709728204784       -0.50507954807153       -0.09478636490822
N           -0.96909853656074       -1.35641174236410       -0.02657843543185
C           -1.40996396818188       -2.74484966887704       -0.02259210444456
H            3.61332676215361        1.32347624021814        0.99688741425034
H            3.93159073632362        1.07861617303663       -0.73758243292601
H            2.55550579756216        2.08687571401012       -0.20649464258431
H            3.57773073418259       -1.66688577138384        0.05527284905476
H           -1.65516121122137        3.33730982186819        0.52459859957125
H           -2.14857734594759        2.79102963621685       -0.89782315622324
H           -3.14829796397705        1.97265575272677        0.28068256073675
H           -1.09292175546899       -3.25384192904027        0.89607938646767
H           -0.99158574781870       -3.29444159302493       -0.87475263709805
H           -2.49415174148299       -2.78530695225461       -0.08480585261402
H            1.38125065530558       -2.98874430453932        0.04730209487116
25
 energy: 19.017004746015 xtb: 6.6.1 (8d0f1dd)
C            3.14418952789942        1.19633813737930        0.00017341589171
N            2.26100253818609        0.07572700606925       -0.01365640272851
C            2.58306085230068       -1.26426995412125        0.02866862080501
N            1.41053427041477       -1.97938698945219        0.02824606832309
C            0.37132575889846       -1.12303401446952        0.00656147193645
C            0.87390005600585        0.16965401633735       -0.00924166485798
C            0.06150338622257        1.32239249292380       -0.02324847242286
O            0.41360184125405        2.50017163641663       -0.09095136041617
N           -1.34173736556877        1.03774889338755        0.04747753937591
C           -2.13312892637018        2.28849286236044        0.06356374166816
C           -1.87957337240036       -0.24447426252108       -0.01573088104095
O           -3.05958975506714       -0.51076936623138       -0.07717437812067
N           -0.96865008690750       -1.35773711866481       -0.01598418695073
C           -1.41166111133778       -2.74513143853566       -0.01536834236176
H            3.60695083631768        1.32101310131618        0.98263620967478
H            3.92556258004421        1.07434382874137       -0.75088807427282
H            2.55083735435151        2.08352804264362       -0.22103458881070
H            3.57206509359588       -1.65580234686025        0.03970664149658
H           -1.70420875457179        3.31369780503530        0.62903185412491
H           -1.95853417887409        2.84525342456384       -0.89125880830170
H           -3.21787738897608        1.95339337738360        0.12431051751563
H           -1.09590278471370       -3.25180318813811        0.90392398266038
H           -0.98980330206366       -3.28663884067890       -0.86821722950781
H           -2.49300876472188       -2.78679395263525       -0.07976370860662
H            1.39135636401807       -2.98688455007787        0.04525193107390
25
 energy: 16.094332869908 xtb: 6.6.1 (8d0f1dd)
C            3.14762146307773        1.19528370113993        0.00143199613331
N            2.26085032767574        0.07623147010598       -0.01442342000884
C            2.57843688524289       -1.25248069968261        0.02537689720375
N            1.41280481419969       -1.97409142509718        0.02580078740898
C            0.36864051557286       -1.11694647785766        0.00892768964799
C            0.87552751544665        0.17395155794286       -0.00560198429102
C            0.05808622811706        1.32537325415964       -0.01482544786907
O            0.41246067051923        2.50233308585238       -0.09211654598290
N           -1.33413490175796        1.03210715368627        0.06588504339921
C           -2.13729119430503        2.27756460640208        0.05038711359948
C           -1.88074370629378       -0.24494310965610       -0.00354287785813
O           -3.06086835381788       -0.50227023660851       -0.06735219553203
N           -0.96713771069855       -1.35583829398420       -0.01106430563387
C           -1.41743087746359       -2.74041262937837       -0.01757204703234
H            3.60983406318988        1.31346837748936        0.98458997839178
H            3.92851267765541        1.06974982413017       -0.74926556971617
H            2.55727511023882        2.08399707990315       -0.21833223971507
H            3.56700664491175       -1.64785563160712        0.03280527490057
H           -1.74597176191003        3.28624929103123        0.61998439602471
H           -1.92399345074471        2.80616356297759       -0.85236573069711
H           -3.18818940387286        1.96412084614599        0.07603563870736
H           -1.10346345458717       -3.25087410524329        0.89931170551713
H           -0.99804568446160       -3.27773445308166       -0.87360111202620
H           -2.49933540253311       -2.77319865650936       -0.08163197429261
H            1.39176365453493       -2.98091949008856        0.03819282586832
25
 energy: 15.510736190661 xtb: 6.6.1 (8d0f1dd)
C            3.14901306068631        1.19777725574881       -0.00093109181138
N            2.26012057096573        0.08133950105354       -0.01792014729438
C            2.58012131879590       -1.25001092827880        0.02217755838523
N            1.41231046800610       -1.97330839035445        0.02448419256950
C            0.36894147535160       -1.11476968673989        0.01149892134028
C            0.87312207752209        0.17710727875086       -0.00358745334292
C            0.05320361645984        1.32297005948300       -0.00812952589019
O            0.40711660642185        2.50354140938831       -0.08934670671486
N           -1.33591503527079        1.02497644329910        0.08423206827670
C           -2.13826102399895        2.27549049589740        0.04456069291130
C           -1.88247999482516       -0.24830846670676        0.00514750877520
O           -3.06480209652021       -0.50333068187660       -0.05810536946977
N           -0.96773845812222       -1.35763170398003       -0.00570382326734
C           -1.41934871561839       -2.74135166368823       -0.01553670104069
H            3.61354979340653        1.31320854057213        0.98232496080436
H            3.92926371934768        1.06975760696595       -0.75238150479382
H            2.55979165566609        2.08752268215250       -0.21960073948648
H            3.56726647824414       -1.64761441064628        0.02543733365755
H           -1.78360062761655        3.27472318716090        0.63991197310259
H           -1.86113056540839        2.81832692821051       -0.84399054522123
H           -3.18501540906265        1.96054615712576        0.02174485518819
H           -1.10555513744318       -3.25608451220281        0.89925932616061
H           -1.00362050378775       -3.27881040485301       -0.87400903081378
H           -2.50270931000558       -2.76766868836079       -0.07814098928312
H            1.38857070474230       -2.97936940594914        0.03363813340569
25
 energy: 14.934644153887 xtb: 6.6.1 (8d0f1dd)
C            3.15298830454234        1.20042485710163       -0.00307862489872
N            2.26067437393534        0.08866904909753       -0.02203619090044
C            2.58569489760858       -1.25216737377874        0.01844712811913
N            1.41044339772757       -1.97368258297062        0.02243151447686
C            0.37208491835176       -1.11168649085191        0.01318226574558
C            0.87144380036084        0.18118042709232       -0.00138046029184
C            0.05106768639883        1.32113612253223        0.00089846086497
O            0.40756780313648        2.50519711933397       -0.07442610474652
N           -1.33696725524282        1.02065828985386        0.10484596085611
C           -2.13580723426057        2.27969976681256        0.03512693887795
C           -1.88010621882140       -0.24882893314315        0.01047599565725
O           -3.06638501500253       -0.50007883973008       -0.04956992158842
N           -0.96779313757059       -1.35813478296682       -0.00070664843754
C           -1.42127117450828       -2.74046574909848       -0.01251886770087
H            3.62226413083031        1.31256686297512        0.97974978391127
H            3.93154130074154        1.07089800240572       -0.75686141531761
H            2.56539003682118        2.09251314506950       -0.21864421524917
H            3.56989997930342       -1.65329373404591        0.01600713560558
H           -1.83598316441780        3.26662063022631        0.65311934699255
H           -1.80592922958142        2.81495807033268       -0.82933976727831
H           -3.19113672779726        1.95152588500571       -0.04040120342579
H           -1.10623315414916       -3.26169921748703        0.89889016688821
H           -1.01430996313010       -3.28076009134543       -0.87491467508329
H           -2.50714482329460       -2.75729050376866       -0.06990829504428
H            1.38022113595468       -2.97893132648035        0.02764558811458
25
 energy: 13.767887377286 xtb: 6.6.1 (8d0f1dd)
C            3.15396844022719        1.20099953495843       -0.00267289000132
N            2.26042241564934        0.09060158168823       -0.02193328141553
C            2.58744844183082       -1.25349310610458        0.01834555832749
N            1.41001840992488       -1.97361493036896        0.02200039758390
C            0.37314128171779       -1.11140512806747        0.01247123575279
C            0.87090719574452        0.18157158551279       -0.00112988070227
C            0.04914735956681        1.32145957365294        0.00269809145918
O            0.40681025849204        2.50579357526536       -0.06571001765616
N           -1.33983921459869        1.02016477859684        0.10390991503219
C           -2.13993510987147        2.27875127135158        0.03109163099032
C           -1.87937192744275       -0.24998646797033        0.00764349556866
O           -3.06648969124358       -0.50086486869694       -0.05228244136749
N           -0.96767774962770       -1.35851436671633       -0.00096206475631
C           -1.42145920653887       -2.74006706507793       -0.01139419508815
H            3.62488971501909        1.31209987981431        0.97957057715475
H            3.93154052216717        1.07192888824210       -0.75771740397594
H            2.56740363923137        2.09421258879445       -0.21657861251004
H            3.57117598566267       -1.65458768308029        0.01459621630218
H           -1.84568787943562        3.25585188677302        0.64876817349970
H           -1.80431228169383        2.81982251583778       -0.83503100996241
H           -3.17781955014654        1.95463779184334       -0.03464584091062
H           -1.10451917689140       -3.26147477145881        0.89932429032301
H           -1.01806460348186       -3.28116145630746       -0.87514156250365
H           -2.50766914124100       -2.75482402893563       -0.06532563035193
H            1.37818653491599       -2.97887297737447        0.02713914535490
25
 energy: 13.669293349395 xtb: 6.6.1 (8d0f1dd)
C            3.15366610329243        1.19994648977688       -0.00314403460720
N            2.26030242959998        0.08902503154095       -0.02155798305901
C            2.58657000189945       -1.25369300086692        0.01831131580571
N            1.41022610059446       -1.97346235355666        0.02170905153902
C            0.37279217746855       -1.11190446455814        0.01236884140438
C            0.87166656375977        0.18054876561572       -0.00079644772984
C            0.05018744683268        1.32249229625904        0.00377897012333
O            0.40810841179453        2.50555714486105       -0.06441351006430
N           -1.33926095258952        1.02225704219180        0.10237328296684
C           -2.13966281189885        2.27927066803483        0.03102949878559
C           -1.87883082272906       -0.24916759641300        0.00781510324596
O           -3.06519084073548       -0.50026210211399       -0.05426701324911
N           -0.96754681079598       -1.35777886895903       -0.00096106219780
C           -1.42131273437163       -2.73932296616602       -0.01105575548781
H            3.62448953805862        1.31138534626041        0.97871444288268
H            3.93079368412676        1.07150329186064       -0.75856699806849
H            2.56711246060341        2.09318582997422       -0.21674690421762
H            3.57086243604921       -1.65382314499315        0.01427850393599
H           -1.84364042829191        3.25483493521166        0.65173841197449
H           -1.80642028053944        2.81888784621192       -0.83529877134961
H           -3.18388903161843        1.95391946631105       -0.03647216646758
H           -1.10346137896749       -3.25958127594111        0.89976853920751
H           -1.01753705144329       -3.27974425838652       -0.87473562700827
H           -2.50711592438055       -2.75606061176955       -0.06441221299684
H            1.37930638221812       -2.97898490821411        0.02757642077921
25
 energy: 13.357506038712 xtb: 6.6.1 (8d0f1dd)
C            3.15341857887252        1.19935998415822       -0.00333747779958
N            2.25995234430221        0.08841655915727       -0.02099085807716
C            2.58621818499729       -1.25419641833308        0.01876236529161
N            1.41009517460368       -1.97336708536131        0.02146952036688
C            0.37255590453301       -1.11228375286388        0.01226687961118
C            0.87190049679516        0.17985656081195       -0.00064729956140
C            0.05092991710709        1.32295514108107        0.00423029858784
O            0.40914257385718        2.50535607151725       -0.06244300515744
N           -1.33934174304562        1.02358376963296        0.09944957571884
C           -2.13883997406590        2.28022217328106        0.02986838494149
C           -1.87840483618207       -0.24891738172797        0.00686241766087
O           -3.06450965386967       -0.49985374399782       -0.05653372544101
N           -0.96776775284307       -1.35723716409473       -0.00092328170678
C           -1.42110648605083       -2.73891371521698       -0.01048801631396
H            3.62458384578082        1.31101929718067        0.97814885672196
H            3.92997831799484        1.07126366467734       -0.75933455430523
H            2.56687097081242        2.09279066293985       -0.21653480037207
H            3.57096034796957       -1.65315829517207        0.01404039262611
H           -1.84339530620442        3.25081407849861        0.65399037616394
H           -1.80965711449197        2.82110416498253       -0.83566826086696
H           -3.18501789906306        1.95396446110784       -0.03609211223540
H           -1.10200440736186       -3.25838089458269        0.90024406388834
H           -1.01737990113997       -3.27901633051267       -0.87439190948776
H           -2.50677616640140       -2.75726782033377       -0.06308017471118
H            1.37980925103039       -2.97908538465769        0.02816624060406
25
 energy: 12.895115981784 xtb: 6.6.1 (8d0f1dd)
C            3.15331180155113        1.19901116803423       -0.00358120131637
N            2.25968680925948        0.08817042343168       -0.02046060481261
C            2.58594396312911       -1.25453505092784        0.01952760289364
N            1.40988506977486       -1.97327555515016        0.02129733007262
C            0.37230680922823       -1.11244220488300        0.01221080699214
C            0.87198385569201        0.17955807586450       -0.00074290506250
C            0.05153000964802        1.32319349535230        0.00400521782007
O            0.40978771672146        2.50534994613162       -0.06135893732626
N           -1.33946452527882        1.02438448139198        0.09641784257257
C           -2.13815146733340        2.28069329749819        0.02873845223781
C           -1.87821976499927       -0.24889315322058        0.00574843509817
O           -3.06430346865043       -0.49944375950187       -0.05789600660481
N           -0.96811894311168       -1.35670610477285       -0.00079018658757
C           -1.42098322906792       -2.73861608401884       -0.00991103907051
H            3.62484831219209        1.31091139821558        0.97763735094329
H            3.92941840437288        1.07088967127019       -0.76000803976511
H            2.56674134514794        2.09256356505720       -0.21658716839274
H            3.57107625804815       -1.65245967780576        0.01373983638942
H           -1.84563843404046        3.24466786388522        0.65813530250220
H           -1.80977600770412        2.82488976828099       -0.83588014235954
H           -3.18498844792872        1.95446510848970       -0.03681950919147
H           -1.10098869768959       -3.25760522090867        0.90071407845162
H           -1.01729048075535       -3.27857104238324       -0.87399279084488
H           -2.50655824033155       -2.75806935320129       -0.06208732377381
H            1.38017602006226       -2.97910245395730        0.02897749528185
25
 energy: 12.639295196480 xtb: 6.6.1 (8d0f1dd)
C            3.15335668069958        1.19914278483982       -0.00349722101396
N            2.25986712310872        0.08823890578838       -0.02004551679421
C            2.58586546047461       -1.25454854981526        0.02065991877569
N            1.40973746663206       -1.97332976384247        0.02149085042066
C            0.37220652887212       -1.11234889335345        0.01213620146028
C            0.87195836196551        0.17979567570251       -0.00120480509298
C            0.05192285458091        1.32296140395516        0.00247497654148
O            0.40977205208055        2.50549253130847       -0.06309021347119
N           -1.33926751431734        1.02417599360840        0.09403481553143
C           -2.13725356252077        2.28069995591698        0.02861429897325
C           -1.87844655619865       -0.24899804535609        0.00511794532831
O           -3.06472773467752       -0.49926030429553       -0.05743267505814
N           -0.96836510369771       -1.35651328260194       -0.00097986113172
C           -1.42094873194941       -2.73867416624625       -0.01010005152733
H            3.62479861120845        1.31142955273787        0.97782173278374
H            3.92963478035217        1.07071134391996       -0.75970433079647
H            2.56656493231453        2.09248640002832       -0.21690797762945
H            3.57107961608394       -1.65229912718717        0.01403956102440
H           -1.84611117102838        3.24096160104609        0.66005103040960
H           -1.81150813906513        2.82731311881080       -0.83519543073711
H           -3.18369382870009        1.95527890939367       -0.03502959679005
H           -1.10135152955753       -3.25764248190620        0.90069305872775
H           -1.01669824033510       -3.27877086179280       -0.87389047934621
H           -2.50649295228064       -2.75818241555251       -0.06294807593107
H            1.38031526389146       -2.97909168293478        0.02992574149050
