25
 energy: 0.000000000000 xtb: 6.6.1 (8d0f1dd)
C            3.23720163006194        1.16630919979326        0.08434469647475
N            2.29877817382611        0.07527477071623        0.03981603040599
C            2.58028210190900       -1.21425402444508        0.03006176031096
N            1.43813958087363       -1.93419271955128        0.00098261760884
C            0.39035688448383       -1.05887472636071       -0.00790371836672
C            0.93510056364412        0.21347819449412        0.01709077491437
C            0.09450143893243        1.40504303904423       -0.00410947031874
O            0.49712751527797        2.54126714362870       -0.00342325688240
N           -1.25076640035757        1.06271879480407       -0.03085478223738
C           -2.21907211982101        2.15522099834493       -0.05001256985998
C           -1.81739487048744       -0.20012725993278       -0.04692818574614
O           -2.99983886758376       -0.37846417018721       -0.07008878229737
N           -0.92618586207120       -1.30210215599479       -0.03682761578324
C           -1.46982264913417       -2.64643102187190       -0.06029820460571
H            3.71247264356769        1.21471455160235        1.06488849150277
H            4.00791497605742        1.03430808813993       -0.67357694370751
H            2.69910007168542        2.09770118228144       -0.09130154882931
H            3.56654120610678       -1.63682992603973        0.04233140067262
H           -1.67107961066214        3.09322851271934       -0.02552706933167
H           -2.82428953597071        2.09428624779827       -0.95318082946668
H           -2.87644029173232        2.07745725625962        0.81450067533302
H           -1.17061996399332       -3.19584890659852        0.83242232437030
H           -1.14560257411436       -3.17511610292205       -0.95688275822323
H           -2.55549792440841       -2.55659984320617       -0.07459039797972
H            1.38130855184625       -2.94313852034425       -0.01389874181052
25
 energy: -2.316018827820 xtb: 6.6.1 (8d0f1dd)
C            3.22522125525475        1.17907634596979        0.07251191872768
N            2.29736290305240        0.09100581083699        0.03201455045829
C            2.59644564972944       -1.23397820247443        0.03183693544781
N            1.42957858221429       -1.94917079517603        0.00714336516141
C            0.39263372538787       -1.07072203910219       -0.00696543225811
C            0.92045409811168        0.20997356969329        0.01160302531279
C            0.09392631066904        1.38255260120039       -0.00651343406842
O            0.48913753180564        2.54788022610214       -0.01028470126230
N           -1.26608720870126        1.04752610057179       -0.03274945058409
C           -2.17993016310459        2.19494895469520       -0.03033990911597
C           -1.82887404469990       -0.21396146924905       -0.05775323373123
O           -3.02420123737014       -0.40581169358982       -0.07970241110606
N           -0.93706593018225       -1.31868770230045       -0.03708006630252
C           -1.46025300397510       -2.66990737953205       -0.05145023433222
H            3.70010454628106        1.23632236538240        1.05515959909644
H            3.99517252886156        1.04180475017169       -0.68775506035903
H            2.67304688646530        2.09876298304876       -0.11261672422139
H            3.57745140533412       -1.65157703855118        0.04596128812957
H           -1.65843461390888        3.18683510735495        0.06036199580301
H           -2.72767812665692        2.22402155942131       -0.94016316730503
H           -2.94557333984231        2.03438287249976        0.73231704521212
H           -1.15515063328386       -3.21343433928048        0.84560764894628
H           -1.12030090388889       -3.20704182194171       -0.93987575351933
H           -2.54652356267493       -2.59827442834642       -0.07225812836212
H            1.37175201305810       -2.95349773523266       -0.00197576962028
25
 energy: 5.892352453101 xtb: 6.6.1 (8d0f1dd)
C            3.20348977488624        1.19059283271651        0.05156589776694
N            2.28907983933580        0.10263164224637        0.01794546731102
C            2.60858653145148       -1.25485740491031        0.03510151813810
N            1.41766452997058       -1.96364365389918        0.01658364592482
C            0.39284586703035       -1.08819982722735       -0.00394523238779
C            0.89935952069483        0.20113568916120        0.00235091774422
C            0.09205886613903        1.34756147925342       -0.01420501019469
O            0.46982642483195        2.53559484995344       -0.02788224941550
N           -1.29038912210950        1.03318239176856       -0.03014138954094
C           -2.13393348942673        2.24824811869362        0.00226571565024
C           -1.84239623954802       -0.22909804592530       -0.06219919391289
O           -3.04356563171130       -0.44515414184054       -0.09128648251791
N           -0.95113316555389       -1.33776343359397       -0.03454609733262
C           -1.44381137789281       -2.70146276995184       -0.03735955552930
H            3.67825642165181        1.26844330427202        1.03534990666036
H            3.97558040315089        1.05272613500165       -0.70855258709763
H            2.63528619130670        2.09781692205779       -0.14673667973636
H            3.58536773245629       -1.66196125344485        0.05131820935452
H           -1.63411376502626        3.29772706195580        0.22195406360734
H           -2.56276086107127        2.44841409723504       -0.95521567072123
H           -3.05615099447384        1.96259596300742        0.60278397227268
H           -1.13139122927744       -3.23534978763529        0.86670945430809
H           -1.08072836363830       -3.25142621826505       -0.91296516691715
H           -2.53141378404063       -2.66325045737415       -0.06843111986636
H            1.36660058880030       -2.96547489108301        0.01657156257933
25
 energy: 18.302361904062 xtb: 6.6.1 (8d0f1dd)
C            3.17875901143502        1.19783433460739        0.03187697048033
N            2.27743296621469        0.10292576505764        0.00565991638037
C            2.61061299496933       -1.26991209826508        0.03795564089376
N            1.41042830806392       -1.97609633432974        0.02447119355049
C            0.38968407051037       -1.10741347334311       -0.00100082351898
C            0.88171632122922        0.18799736719104       -0.00643579095559
C            0.08337190636205        1.32217526989291       -0.02594514192524
O            0.44709050252354        2.51920873365294       -0.04949742450606
N           -1.31719193626128        1.02686589754471       -0.02118996010208
C           -2.10835157713484        2.28884409055899        0.03605884543629
C           -1.85639922041942       -0.24255852081062       -0.05760522932086
O           -3.05582286725655       -0.48460708441497       -0.09796230219465
N           -0.96166758933692       -1.35446355475989       -0.03125852200523
C           -1.42637190725502       -2.73083997609082       -0.02618861596020
H            3.65146498516791        1.29807152069408        1.01608196750996
H            3.95487610213396        1.06381087368214       -0.72551510708190
H            2.59798933142334        2.09577403862156       -0.17858080158738
H            3.58893312531358       -1.66630225976782        0.05580667463276
H           -1.62038384274897        3.37494747669887        0.37265978440493
H           -2.38503175470455        2.66616765299384       -0.95834837808062
H           -3.13682288367009        1.92566751720666        0.46665744569570
H           -1.10866837284903       -3.25388428171985        0.88482927185820
H           -1.03980370495002       -3.28836290260495       -0.88994111344219
H           -2.51472631292868       -2.72818144698833       -0.06889305266915
H            1.37109701210472       -2.97864000313563        0.03333844865457
25
 energy: 26.954586421422 xtb: 6.6.1 (8d0f1dd)
C            3.15567403983204        1.19990652745843        0.02000177256138
N            2.26552105148610        0.09387382660888       -0.00132573432266
C            2.60407075486861       -1.27778277948435        0.04009014575115
N            1.40740642591819       -1.98469518381261        0.02888658445905
C            0.38377170470197       -1.12378645975078        0.00060362389892
C            0.87023937629588        0.17391598072773       -0.01284923372325
C            0.07225740653716        1.30925204868863       -0.03932734590863
O            0.42686242141685        2.50222390577451       -0.07161776710009
N           -1.33922585217760        1.03067021543845       -0.00770801810280
C           -2.10009151035456        2.31678750575737        0.05877064917190
C           -1.86828841472829       -0.25012615829783       -0.04564949323729
O           -3.05985430186450       -0.51463830999225       -0.10037920521616
N           -0.96827281816482       -1.36542191880295       -0.02926432909240
C           -1.41180638185437       -2.75277815231345       -0.02310495161263
H            3.62364885947810        1.31883481972945        1.00447395000384
H            3.93690093715058        1.07269502536937       -0.73281281371060
H            2.56628339617505        2.09162092783617       -0.19952689602995
H            3.58746130113884       -1.66549278907538        0.05924018949993
H           -1.63020384976533        3.43079759003987        0.45816318350718
H           -2.24022011059467        2.79249310675832       -0.90616107230967
H           -3.15477813053755        1.94119392808152        0.34508769882047
H           -1.09267012667060       -3.26760891058836        0.89301273487716
H           -1.00412509856467       -3.31106062044502       -0.87782570369882
H           -2.49942005416747       -2.78203137480231       -0.07783424442768
H            1.38107364238140       -2.98981414873141        0.04409017208892
25
 energy: 29.756774323639 xtb: 6.6.1 (8d0f1dd)
C            3.14364589734669        1.19759919758615        0.01056326897330
N            2.25857983431953        0.08213403984810       -0.00601101722322
C            2.59289120904886       -1.27318530672749        0.03635529345578
N            1.41077419016176       -1.98609153495896        0.02971297279387
C            0.37725879345784       -1.13138104835828        0.00213294887523
C            0.86791500570925        0.16535565782784       -0.01306905114316
C            0.06024816389987        1.31072977306800       -0.03821044542227
O            0.41076757700853        2.49392775405996       -0.08522835252405
N           -1.34990304265347        1.03559971371722        0.01396167223157
C           -2.11909134858151        2.31329485710523        0.06819368798202
C           -1.87676957738807       -0.25409458195668       -0.03431588566690
O           -3.05907909486199       -0.52937624298734       -0.09477644091622
N           -0.96873103235585       -1.36939870583211       -0.02551236142961
C           -1.40744341553160       -2.75997663886777       -0.01960928541357
H            3.60769340834706        1.32301390640500        0.99411436813013
H            3.92661394477881        1.07327451118071       -0.73962140838623
H            2.55270697207366        2.08708619035951       -0.21226052975888
H            3.58202121934176       -1.65694163472568        0.05327455522313
H           -1.66560296272729        3.44329756288863        0.53454790222202
H           -2.09197262592417        2.84289988108771       -0.86226399714017
H           -3.16276940371856        1.95694389988180        0.22032577887108
H           -1.09001616350938       -3.26934118424148        0.89921949730899
H           -0.99065330894204       -3.31150312580460       -0.87150050814465
H           -2.49135323895038       -2.80151241499139       -0.08040627193662
H            1.39448366758702       -2.99332592339213        0.04741750518565
25
 energy: 32.508356512287 xtb: 6.6.1 (8d0f1dd)
C            3.14245956927429        1.19522759361175        0.00032037212979
N            2.25640479677689        0.07759662121637       -0.01257606331114
C            2.58485522056459       -1.26161416021472        0.02666755040927
N            1.41499371537298       -1.98244457949719        0.02600507587151
C            0.37275221435207       -1.13025738574875        0.00631039649736
C            0.86879675788454        0.16508498469574       -0.00805743096589
C            0.05278437163104        1.31394790331508       -0.01969448513288
O            0.40199799555022        2.49351311072260       -0.08737201166774
N           -1.34877267729910        1.03159290814897        0.05397669817623
C           -2.13733980812793        2.29487454641902        0.07057367302030
C           -1.88171274388600       -0.25779697768245       -0.01165693279203
O           -3.06001302633222       -0.53187525723086       -0.07781697295853
N           -0.96699333739512       -1.37006490088396       -0.01550647854766
C           -1.41111859796762       -2.75840394557862       -0.01444072211403
H            3.60677266044020        1.31714186798427        0.98257513549128
H            3.92335450388861        1.06806480920878       -0.75070802260675
H            2.55359228766747        2.08496064796720       -0.22142958361181
H            3.57601442281723       -1.64597525200216        0.03764102285799
H           -1.71484520640472        3.43730447799805        0.60802386108035
H           -1.92616895256422        2.86145994554908       -0.84292023822427
H           -3.21564469090796        1.94309431090620        0.07565986507479
H           -1.09392788157633       -3.26759176329469        0.90324739414420
H           -0.99524988707012       -3.30248928776021       -0.86887069429017
H           -2.49314194975013       -2.79654635333254       -0.07424562151765
H            1.40236491099768       -2.98977526234496        0.04132810913476
25
 energy: 33.119977127495 xtb: 6.6.1 (8d0f1dd)
C            3.14398189604776        1.19387249467570        0.00095087871668
N            2.25453285053997        0.07602788918559       -0.01387186866753
C            2.57716187112465       -1.24742325913354        0.02283781474050
N            1.41768784852376       -1.97657248812062        0.02295104271033
C            0.36810852298622       -1.12408994104958        0.00804999607731
C            0.86983098577442        0.16885551736319       -0.00536328716487
C            0.04651089252331        1.31802981769931       -0.01101877564650
O            0.39927745255617        2.49399233529510       -0.08824646581318
N           -1.34218989264469        1.02531044452082        0.07905455846626
C           -2.14932212270742        2.27896047861715        0.05484517744951
C           -1.88475434539468       -0.25960951011228        0.00261457984768
O           -3.06179883678043       -0.52381943968693       -0.06779875566798
N           -0.96535037488387       -1.36884025022341       -0.01082704678239
C           -1.41607269899890       -2.75513256100905       -0.01698283362239
H            3.60778684737529        1.30989835845681        0.98369342878276
H            3.92460936219433        1.06401952804388       -0.74943708949420
H            2.55808453746401        2.08531016516359       -0.21909190727775
H            3.56841380654061       -1.63696692297693        0.03131085778937
H           -1.76330824287427        3.42133684936522        0.59978888676061
H           -1.86765906008272        2.81864509455990       -0.78239282083287
H           -3.17505895853452        1.95867067989514        0.00509591162875
H           -1.09959001721720       -3.26732487037094        0.89816583619147
H           -1.00233144915628       -3.29472437878975       -0.87465575050834
H           -2.49899955571479       -2.78580087396921       -0.07630438024339
H            1.40266334927558       -2.98359655522714        0.03366590870742
25
 energy: 32.583780409283 xtb: 6.6.1 (8d0f1dd)
C            3.14477530239161        1.19663230425552       -0.00171823047316
N            2.25429440518040        0.08157264782585       -0.01690483828190
C            2.58125917214501       -1.24914612666424        0.02033208955614
N            1.41677011665767       -1.97772432183515        0.02223573589845
C            0.36979835193081       -1.12412374065886        0.00947476952617
C            0.86684530176575        0.17067422460145       -0.00447376000159
C            0.04300875639912        1.31439880922363       -0.00605535580136
O            0.39457713399949        2.49555280847794       -0.08471068599324
N           -1.34678755348469        1.01891312459067        0.09102280896698
C           -2.14806654333545        2.27928490132757        0.05634908457709
C           -1.88598491114930       -0.26369147783902        0.00627825545808
O           -3.06583650373335       -0.52875249262729       -0.06260920771038
N           -0.96627500725334       -1.37157851639487       -0.00774448832833
C           -1.41605522266693       -2.75742819624789       -0.01403844758125
H            3.61132066607630        1.31104387373084        0.98079808657446
H            3.92438979806844        1.06536652395921       -0.75352644721667
H            2.55909405509384        2.08861035719386       -0.22044293189271
H            3.57101520858097       -1.63934006201208        0.02660096056015
H           -1.77766354698212        3.42352136179186        0.61573689441266
H           -1.82124720463854        2.84581461101857       -0.79490331519345
H           -3.19204850018991        1.94749190101934       -0.02159565181729
H           -1.09864381075161       -3.27206893874863        0.89996888218721
H           -1.00596638360793       -3.29820008552806       -0.87359507290580
H           -2.49999842687076       -2.78372837372599       -0.07108335903062
H            1.39964001431087       -2.98406651456226        0.03163812065763
25
 energy: 32.129806645937 xtb: 6.6.1 (8d0f1dd)
C            3.14677475198237        1.19765789055416       -0.00167602738871
N            2.25529933581895        0.08498067983127       -0.01771342458820
C            2.58532083455131       -1.25273263630287        0.02006153623838
N            1.41548936269507       -1.97897369524579        0.02223876807670
C            0.37225855461319       -1.12315550472992        0.00908808775489
C            0.86647584430824        0.17215907376976       -0.00455111400886
C            0.04423794168418        1.31367084518460       -0.00454124318174
O            0.39840775522855        2.49680935930568       -0.07747849138023
N           -1.34685645401286        1.01880116583827        0.09294660367888
C           -2.14366606906763        2.28496482652703        0.05309377877811
C           -1.88326332633931       -0.26239445537346        0.00270014824689
O           -3.06572292600353       -0.52596707687703       -0.06325256507469
N           -0.96626915177334       -1.37116227066167       -0.00806296530421
C           -1.41595048397227       -2.75657417118585       -0.01304121545268
H            3.61521003447844        1.31113178003128        0.98077137170623
H            3.92559182990801        1.06636459875083       -0.75471401176466
H            2.56111534737934        2.09031499469578       -0.21908754103188
H            3.57336379303097       -1.64441690676103        0.02557247049160
H           -1.78775683300676        3.42542457952039        0.61276439454209
H           -1.82607575098002        2.83933982648896       -0.79618490280976
H           -3.19811338628875        1.94048744555734       -0.02161560770490
H           -1.09778721880777       -3.27311564483143        0.90009985242243
H           -1.00961986395388       -3.29984028207949       -0.87369813589919
H           -2.50095318834740       -2.77979940578567       -0.06770771853450
H            1.39470393481124       -2.98494641404919        0.03102184833527
25
 energy: 30.485366956479 xtb: 6.6.1 (8d0f1dd)
C            3.14847137642517        1.19933770067469       -0.00160589374909
N            2.25516458853602        0.08938407451386       -0.01861881694000
C            2.58858841874809       -1.25388907924972        0.01934089571670
N            1.41460004492986       -1.97912620631422        0.02173619406045
C            0.37394675982346       -1.12160166308003        0.00865130168628
C            0.86511214325164        0.17415752601798       -0.00454779136527
C            0.04135502183819        1.31289513267850       -0.00190130199369
O            0.39800589787897        2.49820211812474       -0.06815416403205
N           -1.34923524292421        1.01562606692641        0.09772996778062
C           -2.14549740548657        2.28608413352019        0.04698532573854
C           -1.88211872398148       -0.26385353359410        0.00033021661679
O           -3.06727379455563       -0.52497791726445       -0.06382750533293
N           -0.96636790203726       -1.37185643861981       -0.00786610664422
C           -1.41634823382678       -2.75632273831759       -0.01189659375582
H            3.61917701680134        1.31080622898553        0.98062861245971
H            3.92619074099756        1.06749694665679       -0.75611522248234
H            2.56361856564969        2.09309030327334       -0.21727050917727
H            3.57501225804624       -1.64723101688506        0.02375765262662
H           -1.80429425643050        3.41391471622486        0.60880154580465
H           -1.81438484077532        2.84064549896860       -0.79953038029758
H           -3.18764060378044        1.94205483686123       -0.02177931823900
H           -1.09662284925506       -3.27441607807528        0.90009161667659
H           -1.01458085534657       -3.30140111867850       -0.87435532797507
H           -2.50255077279686       -2.77533044424344       -0.06310787733887
H            1.38988731620680       -2.98466044693252        0.02955737630345
25
 energy: 29.327989265683 xtb: 6.6.1 (8d0f1dd)
C            3.14893893562378        1.19909024000628       -0.00251436663863
N            2.25457519666573        0.08986138708244       -0.01928834740599
C            2.58838532830563       -1.25304096948373        0.01804727724871
N            1.41454284705461       -1.97842252653070        0.02057675563691
C            0.37386865786624       -1.12067558556415        0.00890914084422
C            0.86521670586376        0.17449153067915       -0.00386883607365
C            0.03998464167223        1.31377585464127        0.00172050671901
O            0.39831510611599        2.49834911633705       -0.06320756871014
N           -1.34903974164880        1.01557498046609        0.10444416323357
C           -2.14724194037040        2.28664038212348        0.04364647855041
C           -1.88133563268647       -0.26374665845329        0.00326063384223
O           -3.06682284585281       -0.52282771592592       -0.06283643527486
N           -0.96625327318987       -1.37136305075860       -0.00651355090503
C           -1.41689841177058       -2.75526684953734       -0.01149754468423
H            3.62047435713467        1.30966809279651        0.97932729752839
H            3.92587824984929        1.06718804355003       -0.75779571069190
H            2.56474383713291        2.09349302518262       -0.21717295326413
H            3.57461572766697       -1.64671890021025        0.02135578340044
H           -1.81694086433379        3.40186404606927        0.61092039241196
H           -1.79536131264034        2.83669767968608       -0.79587234865657
H           -3.19014407346008        1.94571779368382       -0.03611611202012
H           -1.09603693687429       -3.27376082957346        0.89964962668087
H           -1.01658271785489       -3.29980930071778       -0.87499450481627
H           -2.50339492072089       -2.77377627349492       -0.06105890112632
H            1.38872774838776       -2.98397490988196        0.02791302031838
25
 energy: 27.434477418099 xtb: 6.6.1 (8d0f1dd)
C            3.14835312856491        1.19860572490312       -0.00325296689429
N            2.25339592294973        0.08949450683491       -0.01932164619916
C            2.58730173040247       -1.25238198038887        0.01789483305787
N            1.41421503869346       -1.97768867073369        0.02015352231656
C            0.37309165496311       -1.12038127398075        0.00895677321214
C            0.86524364736857        0.17400761614403       -0.00410629764696
C            0.03919789650316        1.31472443293214        0.00224897906210
O            0.39920072335070        2.49784393563339       -0.06241786203151
N           -1.34897179018466        1.01722277662138        0.10556424241544
C           -2.14686781798102        2.28994549905260        0.04135614329139
C           -1.88091318886541       -0.26302563468402        0.00400967114891
O           -3.06612635764565       -0.52074807522677       -0.06369829325623
N           -0.96678479022092       -1.37033564647442       -0.00584215228872
C           -1.41713805061539       -2.75418640004761       -0.01107410887260
H            3.61985777834074        1.30939686911699        0.97828455827847
H            3.92498319005138        1.06675793935100       -0.75872385241108
H            2.56462116934196        2.09339329340055       -0.21771788180608
H            3.57398721313730       -1.64507238808048        0.02063540701559
H           -1.82662949622503        3.38213120694868        0.61644746952438
H           -1.78174643526367        2.83780108579792       -0.79237428419396
H           -3.18964484859214        1.94928586522868       -0.04285061718917
H           -1.09554044142151       -3.27202010583184        0.89996041174792
H           -1.01625928722516       -3.29787995688573       -0.87473357904239
H           -2.50336381432593       -2.77440986922334       -0.06056579418970
H            1.38875189283533       -2.98345214823588        0.02820122109834
25
 energy: 25.843168906827 xtb: 6.6.1 (8d0f1dd)
C            3.14762917570166        1.19822035591361       -0.00354536708208
N            2.25301885148362        0.08851344075698       -0.01888665817305
C            2.58632277675384       -1.25241577820682        0.01853603544449
N            1.41395101412975       -1.97752881686386        0.02046626984440
C            0.37236686960447       -1.12075837287607        0.00910690967975
C            0.86546605611339        0.17331228874685       -0.00445657269236
C            0.03989801418265        1.31496407339112        0.00070843233482
O            0.40005610870193        2.49723743107710       -0.06575362638852
N           -1.34870213948546        1.01929736853591        0.10208725551486
C           -2.14489814626036        2.29318967337899        0.04072167261686
C           -1.88120075831991       -0.26200663567227        0.00384354040733
O           -3.06584279694830       -0.52005088067957       -0.06426720129020
N           -0.96742222950719       -1.36928671126035       -0.00569479701269
C           -1.41699470225666       -2.75365483940203       -0.01100900189181
H            3.61852926756453        1.31001988938161        0.97796933538221
H            3.92448113686022        1.06647299750150       -0.75866127723998
H            2.56363742078972        2.09274324366758       -0.21866174524092
H            3.57368988339209       -1.64385898860052        0.02115364677086
H           -1.83027226846854        3.36658816370587        0.62382049261573
H           -1.78013962715580        2.84314936464618       -0.79246813429136
H           -3.18878765696692        1.95206402062402       -0.04221841391181
H           -1.09569121734167       -3.27078264466498        0.90046765516535
H           -1.01417117896906       -3.29677205846200       -0.87394702299426
H           -2.50267783256629       -2.77615716623853       -0.06186579838676
H            1.38996864690466       -2.98347081622833        0.02958826696637
25
 energy: 25.188712852044 xtb: 6.6.1 (8d0f1dd)
C            3.14738360294474        1.19816417380181       -0.00340172666844
N            2.25354333066223        0.08773908844425       -0.01848711449179
C            2.58597492300601       -1.25281508175284        0.01927513709434
N            1.41386186223215       -1.97777036389265        0.02097106757003
C            0.37217101079860       -1.12116904761601        0.00911075762282
C            0.86576916128873        0.17308264504631       -0.00474262157809
C            0.04120119678355        1.31473856826268       -0.00120220959754
O            0.40026403256928        2.49709778554510       -0.06897322472193
N           -1.34831211803822        1.02035586542430        0.09803030946752
C           -2.14302017798594        2.29413588752608        0.04153717869254
C           -1.88174198922262       -0.26124172917651        0.00308000637395
O           -3.06594859241697       -0.52040361533325       -0.06385459878388
N           -0.96765474688397       -1.36872207485159       -0.00605815900620
C           -1.41680801591756       -2.75358359613453       -0.01116713806628
H            3.61770765365971        1.31083175900395        0.97828005248746
H            3.92466128742472        1.06652021416364       -0.75804348763197
H            2.56281358234669        2.09213456745886       -0.21927619167348
H            3.57365720132583       -1.64384879327155        0.02203480061807
H           -1.82929312763635        3.36081286371560        0.62787970726626
H           -1.78616532744901        2.84790773437097       -0.79427475618439
H           -3.18807780173811        1.95294997301101       -0.03861564341762
H           -1.09623006963657       -3.27035079050885        0.90087662599876
H           -1.01244957951260       -3.29668186134335       -0.87328240980649
H           -2.50218299693364       -2.77710162067378       -0.06336180336482
H            1.39109036626566       -2.98375394904772        0.03069933794843
25
 energy: 25.012970598551 xtb: 6.6.1 (8d0f1dd)
C            3.14752456596026        1.19829671673000       -0.00323196128763
N            2.25421143704624        0.08749312943378       -0.01840497129605
C            2.58603734576141       -1.25310788670200        0.01962939072715
N            1.41382575209080       -1.97794770207339        0.02122004023451
C            0.37229461252534       -1.12120481625694        0.00902763574423
C            0.86597634047805        0.17330039236736       -0.00481657615723
C            0.04209110374043        1.31463438318054       -0.00196257148617
O            0.40014698258350        2.49741394682098       -0.06985823284666
N           -1.34802462941853        1.02053867500239        0.09631081619526
C           -2.14209028581216        2.29375671550562        0.04237697732934
C           -1.88207510995627       -0.26075024235849        0.00268027179608
O           -3.06614842659562       -0.52067803681804       -0.06314281380897
N           -0.96758286210125       -1.36850675776386       -0.00642057255189
C           -1.41677027193161       -2.75354045014083       -0.01131164513136
H            3.61765528483522        1.31124882437441        0.97857737279914
H            3.92505491335672        1.06675513509436       -0.75765930095410
H            2.56256629679116        2.09190247600040       -0.21940083062535
H            3.57364155777239       -1.64447964893118        0.02240939389627
H           -1.82815152229316        3.35968273927343        0.62871458198695
H           -1.79099926830112        2.84945192018358       -0.79578397499913
H           -3.18755051870449        1.95275090650120       -0.03694201656141
H           -1.09664002309107       -3.27028959615070        0.90099911185671
H           -1.01203423262739       -3.29688849522714       -0.87305108688711
H           -2.50213550530125       -2.77691149908832       -0.06392642964116
H            1.39139113112873       -2.98389222678520        0.03100128781582
25
 energy: 24.904515571875 xtb: 6.6.1 (8d0f1dd)
C            3.14777445038109        1.19845322767374       -0.00318853968142
N            2.25477022565218        0.08747522926839       -0.01856328404799
C            2.58616410261253       -1.25321111052630        0.01977644978546
N            1.41378205993624       -1.97795652662429        0.02128900198979
C            0.37246446600496       -1.12098752613905        0.00893760210660
C            0.86611246916425        0.17368932618095       -0.00476252278310
C            0.04265754518206        1.31475526125945       -0.00180625284146
O            0.40001607730261        2.49791800468905       -0.06916725707654
N           -1.34780742046183        1.02045758319910        0.09633275754037
C           -2.14168795951895        2.29317337517167        0.04305381311522
C           -1.88222519405132       -0.26024050569620        0.00266606746675
O           -3.06627133970859       -0.52058414226693       -0.06253124391377
N           -0.96740194522159       -1.36839741565190       -0.00668163730633
C           -1.41684766196914       -2.75339035719024       -0.01136163465537
H            3.61795312224692        1.31138272109960        0.97866889984927
H            3.92538552969305        1.06704510341260       -0.75760025695603
H            2.56259594583786        2.09188171450150       -0.21933793368190
H            3.57352066131337       -1.64527048705489        0.02233513875031
H           -1.82821132649580        3.35906776795092        0.62859696553294
H           -1.79323332945469        2.84896683069592       -0.79670123072549
H           -3.18689676829504        1.95208933741746       -0.03788807488652
H           -1.09682664232404       -3.27025385296616        0.90097517999323
H           -1.01241752601528       -3.29700687303640       -0.87306433913598
H           -2.50234003604427       -2.77617727802002       -0.06377387220283
H            1.39118516216975       -2.98385080517602        0.03083009991204
