  25
        -42.10795262
 C          3.1532624274        1.0808861174        0.0084545410
 N          2.2833210337        0.0785354462        0.0099686253
 C          2.5441111146       -1.2502113528        0.0291571493
 N          1.3791890982       -1.9515109850        0.0217977083
 C          0.3489085707       -1.0641739398        0.0042561806
 C          0.8950835045        0.2079799500       -0.0034295972
 C          0.0710553164        1.3948820211       -0.0036514283
 O          0.4686243573        2.5350150802       -0.0116329294
 N         -1.2873182616        1.0645754693        0.0116024804
 C         -2.2434138312        2.1617161455        0.0433417318
 C         -1.8559319826       -0.1950496100        0.0058462061
 O         -3.0423893465       -0.3665410945        0.0095251896
 N         -0.9726536476       -1.2985080860       -0.0021662178
 C         -1.5226854062       -2.6387442168        0.0000121558
 H          4.2072178352        0.8682042519        0.0346191471
 H          5.4559560949        1.7649526788       -1.7906884505
 H          2.7742099632        2.0873038892       -0.0306998561
 H          3.5222177232       -1.6838754901        0.0487983397
 H         -1.6888536948        3.0968023875        0.0192167116
 H         -2.9140337583        2.0950771199       -0.8135586634
 H         -2.8436398912        2.1020323780        0.9519230713
 H         -1.1980420683       -3.1843001462        0.8866189730
 H         -1.2259175657       -3.1757652420       -0.9015533415
 H         -2.6083861622       -2.5469888777        0.0169664644
 H          1.3153549786       -2.9588780322        0.0384507200
