25
 energy: 32.937280581896 xtb: 6.6.1 (8d0f1dd)
C            3.26179853634970        1.18151722508247        0.08520686852302
N            2.27178508358786        0.13046977104121        0.06377020700080
C            2.59397289751762       -1.19530229380563        0.10610589951057
N            1.42857704514135       -1.93378277167709        0.02484389260263
C            0.33913213636351       -1.08761917839434       -0.02251612195080
C            0.88492119087960        0.19154232621149        0.00180491264440
C            0.03181327401593        1.33288464789717       -0.03363664681825
O            0.48567883611332        2.47605511552631        0.08355759997724
N           -1.37193587523233        0.99810390778860       -0.17241238969215
C           -2.18738371720523        2.18619409053401        0.05529046344356
C           -2.04954446314927       -0.20271051029498       -0.68482633506314
O           -3.20963454390536       -0.35241993990900       -1.00630515607662
N           -1.01358099939868       -1.33219906833058       -0.07064095586507
C           -1.44253744322276       -2.69547242320546        0.09578010895794
H            3.77709806916962        1.24790336357904        1.05169013670328
H            4.03620964983036        1.00504376767580       -0.67257318805294
H            2.75582021033505        2.12468178271185       -0.11467640793898
H            3.58999439700675       -1.56890069454287       -0.00350244499288
H           -1.56300896808054        3.07937474406521        0.14666184829002
H           -2.82935274935217        2.29244072852761       -0.80879628630162
H           -2.79180851829345        2.07843637385689        0.95361288977698
H           -0.82693355633852       -3.20495697996751        0.85894096000157
H           -1.38606631506695       -3.26369543828546       -0.83263400299003
H           -2.48667630182722       -2.67638382918371        0.40517926654292
H            1.48996224237590       -2.93764107048693        0.05642164348775
