25
 energy: 11.967076115558 xtb: 6.6.1 (8d0f1dd)
C            3.26362714352603        1.18732190504154        0.07394581884557
N            2.28885932724546        0.13049358437889        0.05286601835163
C            2.59888051682304       -1.21332881088268        0.08157799835459
N            1.41874997136319       -1.92899967288798        0.01499721720970
C            0.34853248566611       -1.07829392734071       -0.03700854746664
C            0.88898187686272        0.20046954735072        0.00154792556887
C            0.05238798201693        1.32847922813990       -0.03259436208627
O            0.46647502069729        2.49086748810939        0.05519068815181
N           -1.37118937585715        0.98497859865975       -0.15375578596902
C           -2.19988119107934        2.17094971691543        0.02050004140837
C           -1.99612723211661       -0.22515960486385       -0.49963441319704
O           -3.16998339865705       -0.38052509184336       -0.74881634581876
N           -1.01744815055895       -1.31761799361466       -0.10892567215264
C           -1.45842130212363       -2.68146254361663        0.04896419297675
H            3.76473014282801        1.24409386304623        1.04715119019519
H            4.03685093919324        1.02582378474680       -0.68820407540440
H            2.73857817666918        2.12193125589529       -0.11073111995081
H            3.59583895542601       -1.60016863660294        0.00503349035044
H           -1.59007837481402        3.07564731327380        0.09274968488900
H           -2.82837165519893        2.23635353463229       -0.85558724999464
H           -2.81699709834427        2.07989080964877        0.91247325361599
H           -0.92582918188760       -3.20534193004230        0.86317067447939
H           -1.31943910225779       -3.24590780042234       -0.87065143450225
H           -2.52192826386656       -2.64350440908009        0.26923118395851
H            1.45434262756437       -2.93394258950551        0.03130749780638
