25
 energy: 67.517352729851 xtb: 6.6.1 (8d0f1dd)
C            3.25517187427605        1.17452837184627        0.08853252435986
N            2.25981164193017        0.11449456628384        0.06281388829061
C            2.59171465115090       -1.17161824823607        0.08404318120742
N            1.46445846071433       -1.93822552085194        0.03522977981823
C            0.33086345334934       -1.10137660823518        0.00636066645028
C            0.88851482946917        0.18872289026383        0.01362765964904
C            0.01464668765600        1.35570395321481       -0.02422081070471
O            0.51969728880281        2.47190995790477        0.10079044803747
N           -1.33960640905862        1.05009498225479       -0.14100143996146
C           -2.17123072986190        2.20983121128211        0.08008947692277
C           -2.14076540793302       -0.20157594608193       -0.94146189504270
O           -3.31357421204126       -0.29484313611406       -1.10678074534550
N           -0.95839732490767       -1.37617168613732        0.00779446914641
C           -1.41862360187676       -2.71782297651601        0.12863455775009
H            3.76380015400016        1.23533296209260        1.05872250637173
H            4.03289368294169        0.99614794786852       -0.66259568226453
H            2.75977734878767        2.12428464482258       -0.11153155332804
H            3.59354852924920       -1.54413743556199       -0.00784780613651
H           -1.55779633353445        3.10639579355929        0.16705766613635
H           -2.82469255166045        2.31123112584292       -0.78153164531654
H           -2.77763529308794        2.08902702690036        0.97576854339356
H           -0.77687572267024       -3.24652197196267        0.84633090405260
H           -1.41945722547710       -3.25817072651106       -0.81936265683473
H           -2.45350827724130       -2.68909574228456        0.47498293401313
H            1.52256045070010       -2.94168151244191        0.05740315279637
