25
 energy: 0.489827529524 xtb: 6.6.1 (8d0f1dd)
C            3.25371314299175        1.18364273526468        0.07459225936236
N            2.29946177687877        0.11681725190770        0.03814892788749
C            2.60367871946165       -1.23242991242829        0.05369938686677
N            1.40895095328117       -1.92799703311523        0.02483196779852
C            0.35699872941610       -1.06565870436717       -0.00265735480962
C            0.90055180828602        0.21205376345519        0.02960858026268
C            0.07922000986200        1.34623601038940        0.01351493868033
O            0.47330508931748        2.51883912691450        0.06548781268146
N           -1.33024204365260        1.00556886228936       -0.08666640855367
C           -2.20585173128249        2.16293216366062       -0.00303975776956
C           -1.93453245340832       -0.21577128232908       -0.31966142180054
O           -3.12428366465979       -0.37945795848251       -0.48181521789895
N           -1.00976616224051       -1.29926241886506       -0.09491746445821
C           -1.46906104254870       -2.66367907541292        0.00720013697791
H            3.74536800111004        1.23656440951204        1.05259014718315
H            4.02415135896336        1.03781624617985       -0.69119124445791
H            2.71851937411627        2.11360218429792       -0.10472285688014
H            3.59368054562423       -1.63607918238720        0.00935896317562
H           -1.61817976936952        3.08063462753296        0.04813435893392
H           -2.82096309200463        2.17702471992089       -0.89437132938653
H           -2.84346035849216        2.08222672187311        0.87572225808544
H           -1.02341993914991       -3.20344626672370        0.85701914904873
H           -1.24636265862843       -3.21381870787671       -0.90391722921192
H           -2.54547275392811       -2.60896493954334        0.13225454997728
H            1.41254460132523       -2.93360129661594        0.02386667137156
