25
 energy: -42.114189144567 gnorm: 0.008070689754 xtb: 6.6.1 (8d0f1dd)
C            2.79006392816624        1.24639526754983       -0.08072240356212
N            1.94620584767924        0.08599683436344        0.00650753173343
C            2.35553729569675       -1.16278795990764        0.18829550178355
N            1.28333750778000       -1.97239591061884        0.20234745408234
C            0.15979818814332       -1.20159098154028        0.02326376087646
C            0.57770431478194        0.10774114739589       -0.08934092161210
C           -0.11717344475281        1.42763822136436       -0.39860576140593
O            0.29200019407885        2.04143545083407       -1.38504443647074
N           -1.03007654207118        1.76362655588379        0.47212282900352
C           -1.67244074595961        3.02976497592025        0.41769472851898
C           -2.18518528597163       -1.07501130774426       -0.12713498364349
O           -3.32778698203951       -0.87487780130807       -0.21105413690175
N           -1.11162664784206       -1.78205780164388       -0.05708440928031
C           -1.20369548378296       -3.25539838276700       -0.10585646239017
H            2.70503285122259        1.84170693675909        0.82994500353338
H            3.82377997024936        0.94079069132362       -0.22029680846749
H            2.46282299752988        1.86208165362858       -0.92152361364285
H            3.37274269892039       -1.48077504552205        0.30145496252054
H           -0.98490398628283        3.86147049342510        0.64927710515430
H           -2.09100567484162        3.22150022970369       -0.57693573106656
H           -2.47524546970912        3.02605263023635        1.15476580053714
H           -0.87168484354247       -3.68598598381844        0.83949531486687
H           -0.61244669193245       -3.63757360063519       -0.93847571865208
H           -2.24315301004839       -3.53556424676842       -0.26379245074897
H            1.31783052864167       -2.97394352451114        0.32186946313432
