25
 energy: -42.442168270483 xtb: 6.6.1 (8d0f1dd)
C            3.23566092262333        1.15413063791350        0.04922490384122
N            2.31438753559313        0.05630314876541        0.00637103658425
C            2.62691273952227       -1.25322163335313       -0.04342019381402
N            1.49120460800959       -1.98423771748704       -0.03162346554880
C            0.43024282980800       -1.14310651361011        0.03254206733270
C            0.92341922764513        0.16727683892688        0.05975296003869
C            0.09626309788738        1.30416888779816        0.10795341464105
O            0.44610323962887        2.48497120691460        0.12304636679993
N           -1.29849633488874        0.95243198664838        0.12600156971573
C           -2.19341306263943        1.95729984353800        0.16127096644541
C           -1.80328760290045       -0.35726110417569        0.12931713078652
O           -2.99565373541262       -0.58875993080806        0.16962698336047
N           -0.89131575810275       -1.41414748606309        0.07003661617985
C           -1.38246065099060       -2.77364444061230        0.05006717141943
H            3.72618011701464        1.20612092127307        1.02458238645881
H            3.99615560492497        1.04071439465732       -0.72359380324180
H            2.67188870603283        2.07340040855363       -0.10973384513405
H            3.61718247140687       -1.64995840712275       -0.09045793509710
H           -1.79630923960837        2.95171932755947        0.19357396345672
H           -2.96436772562489        4.45083817165762       -1.67472844850447
H           -3.23708696458049        1.71136781403044        0.15191721284428
H           -1.05099655569665       -3.31176795299972        0.94096552117675
H           -1.03783975044788       -3.29361756846166       -0.84606478020696
H           -2.47074276489640       -2.72234723231583        0.04392001953317
H            1.45371246559345       -2.99036618150599       -0.06796672785679
