25
 energy: 0.000000000000 xtb: 6.6.1 (8d0f1dd)
C            3.23720163006194        1.16630919979326        0.08434469647475
N            2.29877817382611        0.07527477071623        0.03981603040599
C            2.58028210190900       -1.21425402444508        0.03006176031096
N            1.43813958087363       -1.93419271955128        0.00098261760884
C            0.39035688448383       -1.05887472636071       -0.00790371836672
C            0.93510056364412        0.21347819449412        0.01709077491437
C            0.09450143893243        1.40504303904423       -0.00410947031874
O            0.49712751527797        2.54126714362870       -0.00342325688240
N           -1.25076640035757        1.06271879480407       -0.03085478223738
C           -2.21907211982101        2.15522099834493       -0.05001256985998
C           -1.81739487048744       -0.20012725993278       -0.04692818574614
O           -2.99983886758376       -0.37846417018721       -0.07008878229737
N           -0.92618586207120       -1.30210215599479       -0.03682761578324
C           -1.46982264913417       -2.64643102187190       -0.06029820460571
H            3.71247264356769        1.21471455160235        1.06488849150277
H            4.00791497605742        1.03430808813993       -0.67357694370751
H            2.69910007168542        2.09770118228144       -0.09130154882931
H            3.56654120610678       -1.63682992603973        0.04233140067262
H           -1.67107961066214        3.09322851271934       -0.02552706933167
H           -2.82428953597071        2.09428624779827       -0.95318082946668
H           -2.87644029173232        2.07745725625962        0.81450067533302
H           -1.17061996399332       -3.19584890659852        0.83242232437030
H           -1.14560257411436       -3.17511610292205       -0.95688275822323
H           -2.55549792440841       -2.55659984320617       -0.07459039797972
H            1.38130855184625       -2.94313852034425       -0.01389874181052
25
 energy: -3.528335715956 xtb: 6.6.1 (8d0f1dd)
C            3.24088453959725        1.17390454968746        0.08056792667516
N            2.30539384208356        0.09200835280378        0.03447093859746
C            2.60209885867238       -1.23381292584173        0.01972088706662
N            1.43391265534305       -1.94623154803146       -0.00380327897612
C            0.39858033348599       -1.06578768752649       -0.00274484794429
C            0.92634933634630        0.21484133669649        0.02212558767886
C            0.09142441170274        1.38610297202167        0.01092619815766
O            0.48923240750896        2.55106550820904        0.01348036496235
N           -1.27410592828448        1.04542757256706       -0.03741226629936
C           -2.22787606974350        2.16207706766157       -0.07195742940528
C           -1.82673661418719       -0.21391144616897       -0.03600339356965
O           -3.02159358327333       -0.40555741219194       -0.04352479911259
N           -0.93127524281254       -1.31332391416059       -0.02310632644658
C           -1.45848835086494       -2.66091116847665       -0.04299436422691
H            3.72146622734822        1.21871673771656        1.06131538667438
H            4.00771493277442        1.03927308264540       -0.68377890851155
H            2.69432672850359        2.09856001845327       -0.09337817403419
H            3.58233138308307       -1.65464877312919        0.02252806812348
H           -1.65244753205843        3.07702098301252        0.05468309461219
H           -2.79925358140617        2.31802060465449       -1.02724642776117
H           -2.94272805831239        2.03898961257550        0.74093881226114
H           -1.14931447887623       -3.21029963522478        0.84858904560798
H           -1.12714338824865       -3.19088620344522       -0.93850722202686
H           -2.54435987144640       -2.58120680485776       -0.05598658491243
H            1.37382171100097       -2.95040227747804       -0.02186839104300
25
 energy: 6.118561514185 xtb: 6.6.1 (8d0f1dd)
C            3.24292469008657        1.17734768447340        0.07405522880480
N            2.30713854756938        0.10777988562306        0.02556529143132
C            2.62211809231951       -1.25442163214224        0.00318257056627
N            1.42740677664251       -1.95650640097346       -0.01167819804022
C            0.40716455931343       -1.07655570843569        0.00524149581991
C            0.91027368895269        0.21504793739774        0.02909047577899
C            0.08537208041451        1.35688922437346        0.02210841257204
O            0.46997171175663        2.54582356117156        0.03937135742272
N           -1.31324586191931        1.02874077411413       -0.06003139453045
C           -2.23825270327601        2.18141000115012       -0.10361522788505
C           -1.83676353198523       -0.23151203863081       -0.01539108430125
O           -3.03729131859127       -0.44950851395975        0.00848313317776
N           -0.93747609184595       -1.32706993161226        0.00104107113955
C           -1.43941714066942       -2.68190513767508       -0.01520640568950
H            3.73292774174543        1.22155312528370        1.05301818986749
H            4.00652252016275        1.04455433973029       -0.69705063824646
H            2.69070527819677        2.09804472980209       -0.09595546250999
H            3.59664569374503       -1.66908360080662       -0.00911623514134
H           -1.62733420907703        3.05950440740154        0.19672322386484
H           -2.73028538948127        2.65700848381792       -1.13472711549577
H           -3.05607249063907        1.96661968212884        0.60828636714370
H           -1.11705294508804       -3.23180278875247        0.87425083213500
H           -1.09894521824515       -3.21350123529732       -0.90950101037173
H           -2.52608459739039       -2.62173069705172       -0.02628737735944
H            1.37126478523914       -2.95769754895844       -0.03482360400593
25
 energy: 20.306503968257 xtb: 6.6.1 (8d0f1dd)
C            3.24301843871842        1.17324722220511        0.07111270336462
N            2.30492450715491        0.10876784936739        0.01825324785996
C            2.62852713310445       -1.26868301961937       -0.01387368701472
N            1.42517196799590       -1.96513503036497       -0.02361579577122
C            0.41058835271618       -1.08771297542980        0.01136141294135
C            0.89996578327283        0.21045221259222        0.03595344135500
C            0.07917682706992        1.34254155893328        0.03037166662127
O            0.45588746825382        2.53792978181616        0.06946152248795
N           -1.34259492980740        1.03089488329322       -0.08439523322002
C           -2.24438574328295        2.21442466371271       -0.13450192216345
C           -1.84463403070367       -0.24024905144307        0.00857885242384
O           -3.04383651930866       -0.48362839183247        0.06380438624817
N           -0.93996434647478       -1.33553125841995        0.02477225164607
C           -1.41968183312947       -2.70022935516354        0.01014302903899
H            3.74037241692489        1.21508514012788        1.04778006529543
H            4.00445359204500        1.04622390905902       -0.70430039089041
H            2.69105322670791        2.09572939594799       -0.09175644913138
H            3.60372724366192       -1.67861550784139       -0.04545644331129
H           -1.64003282284106        3.04981565980971        0.31303222756608
H           -2.65959923426214        2.91554175453109       -1.19827911807201
H           -3.15361637454390        1.92051741930099        0.45927516831950
H           -1.08481406602365       -3.25047782257745        0.89643196036140
H           -1.07007742582940       -3.22981592867966       -0.88367709075707
H           -2.50754220596877       -2.66510522737487        0.00102749710225
H            1.37612724248595       -2.96695927977824       -0.05446940615304
25
 energy: 29.787580461455 xtb: 6.6.1 (8d0f1dd)
C            3.24217014220132        1.16424628089140        0.07318117808974
N            2.30155059124968        0.09932034198796        0.01324855620793
C            2.62517476139463       -1.27534078361777       -0.02660667647778
N            1.42703049677952       -1.97088877237191       -0.03652229797268
C            0.41044532392101       -1.09718689844354        0.01383205695898
C            0.89672726957335        0.20251757452254        0.04119131238767
C            0.07511705543661        1.33864452330160        0.03475309400087
O            0.44668711031478        2.52683060007342        0.09866444152646
N           -1.35810451613854        1.04080808672045       -0.10432029419360
C           -2.25057513431737        2.24051448738581       -0.15504060557646
C           -1.84872463088214       -0.24237810365678        0.03200516942657
O           -3.04033386334242       -0.50306508551826        0.11537758145412
N           -0.93913762778334       -1.33890431587052        0.04259264563609
C           -1.40294711118172       -2.71283120881034        0.02814402935104
H            3.74233982036824        1.20164269689125        1.04844245649986
H            4.00284959153766        1.04461543637944       -0.70368104688654
H            2.69343576560802        2.09114756232200       -0.08166862734455
H            3.60403983393629       -1.68155859860194       -0.07945161455715
H           -1.69284652329182        3.02973489290313        0.36894259023520
H           -2.61523332162620        3.09563729395866       -1.21801037493503
H           -3.19963338958425        1.91252545547960        0.33078535511717
H           -1.05789973350470       -3.26185086141467        0.91180043567894
H           -1.04475079226482       -3.23743398523405       -0.86587996720370
H           -2.49131081640798       -2.70264658044503        0.02050998638778
H            1.38614436594050       -2.97507143666052       -0.07525548766370
25
 energy: 33.749292480740 xtb: 6.6.1 (8d0f1dd)
C            3.24122445905159        1.15620610322365        0.07062902870986
N            2.29958021361616        0.08775310238928        0.00697804019349
C            2.61632175667319       -1.27123529426592       -0.02973159478747
N            1.43118658729910       -1.97112351504227       -0.04135040621466
C            0.40741909625327       -1.10105186677512        0.01069126566511
C            0.89995559969723        0.19635859305650        0.04086148759777
C            0.07548434121311        1.34283540570161        0.03641370381771
O            0.44325969711969        2.51922923833818        0.11808816656411
N           -1.35516534873195        1.04807647218963       -0.11674869466143
C           -2.25351568249312        2.24593129508078       -0.16332020960563
C           -1.84913124940225       -0.23949537793860        0.03628372681683
O           -3.03164744305563       -0.50220028359325        0.14440643875101
N           -0.93697589501582       -1.33718884666873        0.04706082005001
C           -1.39714217643136       -2.71511470861586        0.04038608080847
H            3.73955019664509        1.19042007301955        1.04581748822929
H            4.00149638226569        1.03870168715712       -0.70553272676477
H            2.69544951733873        2.08580496438910       -0.08138391492358
H            3.59820637977599       -1.67533151561402       -0.09924262164063
H           -1.74914048073908        2.99846565339205        0.44070434576537
H           -2.57089456339950        3.19204423790284       -1.22389713513327
H           -3.22322925383755        1.89019365415497        0.22241554878414
H           -1.04689841824381       -3.25710723187729        0.92575861634488
H           -1.03507638065231       -3.23811597363492       -0.85222734020848
H           -2.48430367466930       -2.71791438677309        0.03413025326886
H            1.39620100765912       -2.97711287702427       -0.08015647127975
25
 energy: 32.016669763683 xtb: 6.6.1 (8d0f1dd)
C            3.24187548080874        1.15223106519935        0.06804722190061
N            2.30034036127341        0.08110242066042        0.00293953001986
C            2.60993387789876       -1.26400519911438       -0.02771067599417
N            1.43345343701377       -1.96840695865147       -0.04216028195998
C            0.40453298494416       -1.09924981547396        0.00532956817389
C            0.90463272128595        0.19548128609355        0.03747249941933
C            0.07967893745254        1.34833014635030        0.03499786908373
O            0.44627359658251        2.51828690707882        0.12983466226445
N           -1.34265375640659        1.05186894543853       -0.11658464115227
C           -2.24951255687822        2.24189040824803       -0.16138243440658
C           -1.84756355780114       -0.23447083836692        0.03746227737127
O           -3.02511927976553       -0.49143403501068        0.15734918365808
N           -0.93588569988718       -1.33327193698313        0.04419460039791
C           -1.39943940943359       -2.71139977511127        0.04331811530732
H            3.73785761010920        1.18518231846066        1.04363307623781
H            4.00215262129510        1.03370960599799       -0.70710165719650
H            2.69695976637133        2.08198035777361       -0.08447562727029
H            3.59202965815059       -1.66949688754851       -0.10591171339816
H           -1.79568945296393        2.97752641028359        0.47770054369927
H           -2.53908450383738        3.19784057552936       -1.20924268106422
H           -3.22903366268974        1.87015300025771        0.15513865210444
H           -1.04818701504183       -3.24889874797865        0.93041500669223
H           -1.03846463634397       -3.23602811963160       -0.84797136130845
H           -2.48565825212884       -2.71495899583270        0.03901325818397
H            1.39878539792815       -2.97493353549668       -0.07727109461633
25
 energy: 28.442764393188 xtb: 6.6.1 (8d0f1dd)
C            3.24322370333585        1.15180453530909        0.06452983491688
N            2.30219713937925        0.07991479978724        0.00031950133898
C            2.60795659608354       -1.25986978554409       -0.02394602959112
N            1.43327604976712       -1.96630712496449       -0.04047340657579
C            0.40310000503104       -1.09533210217650        0.00123814412149
C            0.90736140853704        0.19811209104200        0.03355052890732
C            0.08277173986622        1.35279997797698        0.03206844624919
O            0.45009759007771        2.52239729867990        0.13281902811849
N           -1.33229453348945        1.05442080961056       -0.11786871605859
C           -2.24540388286842        2.23855487155544       -0.16278960456302
C           -1.84637901542713       -0.22936064543914        0.03489591017932
O           -3.02351966043876       -0.48102976918901        0.16047818567455
N           -0.93619343026121       -1.32931310845316        0.04055883318344
C           -1.40368860150608       -2.70636286976545        0.04493614532056
H            3.73815358326186        1.18478760495180        1.04034921951504
H            4.00350198089543        1.03073747483164       -0.71016681855100
H            2.69799317949988        2.08063073215523       -0.08953878548914
H            3.58850630022744       -1.66879939388231       -0.10731617266801
H           -1.82478639881788        2.96755479510956        0.52795800488275
H           -2.50996531216331        3.17540894022441       -1.19808556949998
H           -3.23144100264419        1.84280599827187        0.10437056322426
H           -1.05295999534056       -3.24141721856695        0.93355591984283
H           -1.04495246608354       -3.23434824843492       -0.84501445726006
H           -2.48982278973278       -2.70623655264094        0.04198933162147
H            1.39548248074723       -2.97252450827683       -0.07138414069267
25
 energy: 22.258488212799 xtb: 6.6.1 (8d0f1dd)
C            3.24421359607911        1.15286518606020        0.06464829836219
N            2.30358847439044        0.08096908617787        0.00011146576570
C            2.60736102922801       -1.25726389521379       -0.01957072137535
N            1.43128714457085       -1.96415875342759       -0.04014325836470
C            0.40183514771536       -1.09009830699513       -0.00173198676992
C            0.90830144934165        0.20233516342971        0.03091073711212
C            0.08334014002141        1.35621296355148        0.02972021962741
O            0.45247461982454        2.52692034923298        0.13153306800278
N           -1.32446446749962        1.05738393067573       -0.11464475459938
C           -2.24164897127999        2.23929689595958       -0.16115734497065
C           -1.84596273841780       -0.22388296443957        0.03762866156999
O           -3.02415505952409       -0.47098219404665        0.16182444967033
N           -0.93753146153412       -1.32520795173173        0.03757027948515
C           -1.40746141851573       -2.70135539068613        0.04244345818489
H            3.73910736254409        1.18509111707293        1.04053989563476
H            4.00494743158916        1.03093711531980       -0.70982132334912
H            2.69848133303230        2.08103511145969       -0.08929009528221
H            3.58547145154303       -1.67114682146753       -0.10937553118943
H           -1.84901194839057        2.95541247466971        0.53510701630837
H           -2.48861869708693        3.12121684658606       -1.16743841453177
H           -3.21541066326257        1.83893459580419        0.07351872843224
H           -1.05755114604442       -3.23733656724692        0.93087299323612
H           -1.05061586261940       -3.23109040869191       -0.84735225787149
H           -2.49416310978980       -2.69719691178962        0.04044820133002
H            1.38840103202139       -2.96986206809145       -0.06931788827084
25
 energy: 18.565379566255 xtb: 6.6.1 (8d0f1dd)
C            3.24550155998040        1.15392228674648        0.06312514141703
N            2.30476880167525        0.08342550030767       -0.00000980895813
C            2.60988769918113       -1.26018483091999       -0.01687705647302
N            1.42896314954462       -1.96451477357634       -0.03948799946567
C            0.40288885726945       -1.08759473097190       -0.00052928248024
C            0.90818878831556        0.20467413128792        0.03129384444481
C            0.08366349860762        1.35697340358182        0.03206408066001
O            0.45524133511669        2.52995839158388        0.12585519375381
N           -1.32299970582745        1.06047468867012       -0.11204535492782
C           -2.24191157168156        2.24578559380558       -0.16095134432593
C           -1.84450594185363       -0.21955870466861        0.03943079260335
O           -3.02511977857257       -0.46575717292722        0.15780888268506
N           -0.93825365053189       -1.32263643795538        0.03841998664200
C           -1.40875020811967       -2.69793980988923        0.04258019855625
H            3.74196228007908        1.18617067287560        1.03856381123079
H            4.00564552437239        1.03169970256418       -0.71233310016154
H            2.69925346581997        2.08184602096965       -0.09028867138743
H            3.58590772467936       -1.67644254135955       -0.11288408065889
H           -1.86098323080421        2.95371444294118        0.55023830322508
H           -2.46302303720677        3.09350074651215       -1.15303953567824
H           -3.22848889852614        1.82708481803502        0.05151259400138
H           -1.05932131996336       -3.23544947134371        0.93057474848493
H           -1.05298279924958       -3.22843164468882       -0.84749824976028
H           -2.49585789302195       -2.69205125950977        0.04088223183366
H            1.38254001865356       -2.96964041989878       -0.06937142911374
25
 energy: 15.559953584626 xtb: 6.6.1 (8d0f1dd)
C            3.24540343591021        1.15539433722110        0.06346989436381
N            2.30380712805325        0.08695701958395        0.00176959788466
C            2.61286549255072       -1.26495246517057       -0.01162727146014
N            1.42603829448554       -1.96554567777170       -0.03762312921437
C            0.40420240437798       -1.08698643520479        0.00251489097191
C            0.90598635819045        0.20544518237294        0.03147864613197
C            0.08013771567998        1.35542764320925        0.02968478736426
O            0.45382277111314        2.53093352424466        0.11134146425902
N           -1.32802619044169        1.06176486309520       -0.11881356205178
C           -2.24755771603690        2.25510743257982       -0.16826433484337
C           -1.84403968094977       -0.21800709925626        0.03583391083897
O           -3.02777322311773       -0.46638619760850        0.14608542349986
N           -0.93909540126427       -1.32205038311697        0.03981451697466
C           -1.40796991322683       -2.69689210773661        0.04346073968526
H            3.74381239823441        1.18831396787145        1.03836677100469
H            4.00524654482759        1.03358671982549       -0.71274266306911
H            2.69954688352855        2.08382727076842       -0.08959597083604
H            3.58724303483734       -1.68100899458895       -0.11579771581500
H           -1.86321979252019        2.95203730877477        0.56770914017567
H           -2.44754126171981        3.07837391495920       -1.13631803415937
H           -3.22271414961861        1.82827235285671        0.05069302061223
H           -1.05881206732666       -3.23530376190632        0.93138806701718
H           -1.05174108695734       -3.22744443272475       -0.84674555032625
H           -2.49539664104362       -2.69154456408276        0.04075229053081
H            1.37798933037051       -2.97029081602286       -0.06980103339235
25
 energy: 16.543437563764 xtb: 6.6.1 (8d0f1dd)
C            3.24458464781838        1.15511640327881        0.06424295987844
N            2.30225462120392        0.08718513927960        0.00290899738922
C            2.61313431747210       -1.26631150047375       -0.00966033875130
N            1.42614097262470       -1.96615933610667       -0.03736860119292
C            0.40451749817064       -1.08910556304018        0.00412677913299
C            0.90514486086935        0.20343509061145        0.03224994369988
C            0.07849438825028        1.35367138767619        0.02841059454043
O            0.45139216296241        2.52894889098933        0.10826529833768
N           -1.33192649056883        1.05999712164721       -0.12123112223800
C           -2.25092463250382        2.25743877023622       -0.17055134937305
C           -1.84422674261559       -0.22001948424452        0.03367943410831
O           -3.02829189276306       -0.47034178951496        0.14270431043179
N           -0.93887230085829       -1.32347697596046        0.04084865788589
C           -1.40644398032208       -2.69858423831803        0.04404335973517
H            3.74342593706176        1.18833710192828        1.03892594980410
H            4.00407241911280        1.03378139788011       -0.71225174795116
H            2.69943036062072        2.08423139933248       -0.08882101030878
H            3.58821094740001       -1.67901380063685       -0.11822823141805
H           -1.85491598713310        2.94895937727475        0.55936238167176
H           -2.44633022341035        3.09531649658542       -1.13388138875744
H           -3.22794233221582        1.83703413196051        0.06370118332730
H           -1.05655751999099       -3.23656702069902        0.93191963078925
H           -1.04932273913458       -3.22816192835663       -0.84633893338306
H           -2.49360721487843       -2.69550432032950        0.04100201337632
H            1.38077359076413       -2.97117814882789       -0.07102487458755
25
 energy: 15.798551986073 xtb: 6.6.1 (8d0f1dd)
C            3.24387571151294        1.15443832994159        0.06483889275597
N            2.30079945475800        0.08656136555294        0.00397879361096
C            2.61193117173599       -1.26548719449725       -0.00476465822330
N            1.42634582142234       -1.96580953779653       -0.03696890627098
C            0.40361700833243       -1.08993840920183        0.00396175095971
C            0.90534270058866        0.20211897099469        0.03193796043390
C            0.07781082259211        1.35391311620413        0.02532925501399
O            0.45018150228809        2.52804284047031        0.10691052246974
N           -1.33176171130020        1.05883589861102       -0.12455971818904
C           -2.25246831354035        2.25900382986056       -0.17541487226672
C           -1.84450881153885       -0.22039017487107        0.03076227014380
O           -3.02835269021252       -0.47033470303933        0.13979003943843
N           -0.93894728606631       -1.32356200124814        0.04035741030732
C           -1.40631080309310       -2.69899204649711        0.04425011149890
H            3.74253053886482        1.18755949447984        1.03942437286692
H            4.00298952544928        1.03261715733592       -0.71173673884985
H            2.69950901376452        2.08407270757589       -0.08859552436219
H            3.58758113062989       -1.67506783640237       -0.12280912952125
H           -1.85404236471652        2.94295517445450        0.55755735759259
H           -2.43870876392320        3.09711013140752       -1.12253010665395
H           -3.23113856603615        1.84428036505443        0.06803163783047
H           -1.05550746852735       -3.23589194834496        0.93226554478362
H           -1.04890727298812       -3.22848403100841       -0.84593325022808
H           -2.49319256272420       -2.69735705587072        0.04160649885195
H            1.38354688066410       -2.97116584099370       -0.07065561784568
25
 energy: 15.739411713738 xtb: 6.6.1 (8d0f1dd)
C            3.24351460936110        1.15406950044301        0.06494875887150
N            2.30031350989278        0.08580405735950        0.00401045886515
C            2.61066196801169       -1.26383550420152       -0.00136940435777
N            1.42673050497535       -1.96526832838715       -0.03705473532361
C            0.40256719269195       -1.08994267169595        0.00230282900532
C            0.90559699033295        0.20199724643872        0.03120287833850
C            0.07789495806577        1.35455139765286        0.02328469321770
O            0.44962997435040        2.52771621106806        0.10953349867603
N           -1.33069072234477        1.05791143420652       -0.12798388779121
C           -2.25191424128955        2.25756727841273       -0.17905202319408
C           -1.84540395775732       -0.22079388149076        0.02944203674373
O           -3.02831232351817       -0.47020549590541        0.14129656481752
N           -0.93911907452753       -1.32354597072349        0.03946427551226
C           -1.40656950113573       -2.69936044116398        0.04436713388324
H            3.74154087138529        1.18705492669536        1.03965828161232
H            4.00274405383655        1.03155588283277       -0.71130421330540
H            2.69942199091003        2.08370275175971       -0.08891845020270
H            3.58650762940001       -1.67208797530590       -0.12555142849509
H           -1.85427367309598        2.93981151137567        0.55881013521513
H           -2.43561282395986        3.10027651235442       -1.12069141010408
H           -3.23054792387387        1.84524490832167        0.07045835470053
H           -1.05524820655416       -3.23535294706625        0.93260358240514
H           -1.04923721563498       -3.22922898448292       -0.84554311286212
H           -2.49333135639762       -2.69780452610042        0.04224464764351
H            1.38535143481196       -2.97080829022532       -0.06912556772432
25
 energy: 15.339718176287 xtb: 6.6.1 (8d0f1dd)
C            3.24357521360240        1.15416426828490        0.06498037741795
N            2.30055414064601        0.08569839814324        0.00374308185784
C            2.61045782585111       -1.26333240547077        0.00084559403798
N            1.42659417882985       -1.96501413593314       -0.03738648474318
C            0.40224349822560       -1.08934986024778        0.00102042744305
C            0.90562312079495        0.20260032028649        0.03076077273465
C            0.07796364096195        1.35494792965813        0.02332717544342
O            0.44957898331808        2.52800258931752        0.11149312633259
N           -1.33009496789222        1.05795708942916       -0.12921696392729
C           -2.25105513740190        2.25701513683795       -0.18050984386869
C           -1.84585074376947       -0.22042518466745        0.02968780098273
O           -3.02834667992479       -0.46956045636334        0.14324956680593
N           -0.93924351995391       -1.32320423164549        0.03893857399128
C           -1.40682968929455       -2.69909529690913        0.04413147926623
H            3.74142344134812        1.18705470182645        1.03976268144703
H            4.00300499317669        1.03149536742359       -0.71111083238752
H            2.69937413861785        2.08362835632804       -0.08891816886755
H            3.58580531825141       -1.67190566974992       -0.12745932353901
H           -1.85518244976608        2.93921402040867        0.55858345338502
H           -2.43360936750557        3.09635970865741       -1.12006632015886
H           -3.22983362474383        1.84459018319082        0.07055708319789
H           -1.05553607329842       -3.23505302313998        0.93238811736322
H           -1.04967826030408       -3.22919051770376       -0.84571638304746
H           -2.49365586215443       -2.69704873361395        0.04219519147959
H            1.38493255032153       -2.97051995217575       -0.06824628649962
25
 energy: 15.224317855092 xtb: 6.6.1 (8d0f1dd)
C            3.24361117385065        1.15443515821458        0.06513367398343
N            2.30108886410366        0.08558314927376        0.00317876477058
C            2.61059796916791       -1.26312846996311        0.00486840378502
N            1.42647131949983       -1.96488134409091       -0.03795713126001
C            0.40217992135131       -1.08873804944370       -0.00091151354361
C            0.90546861278037        0.20338000894649        0.02992711376822
C            0.07788464290334        1.35499279262533        0.02378835266910
O            0.44896279701934        2.52808319482908        0.11455455563365
N           -1.33010519114525        1.05791532363443       -0.13112176774009
C           -2.24983610687384        2.25596541780501       -0.18188033692262
C           -1.84638321097370       -0.22020379484978        0.03046782931598
O           -3.02811386379568       -0.46941176912322        0.14709287726130
N           -0.93918708016675       -1.32305263256258        0.03823078308954
C           -1.40683608003265       -2.69898227747977        0.04378682327978
H            3.74128680337812        1.18737563698794        1.04002711446074
H            4.00345982525143        1.03191095657158       -0.71069664640337
H            2.69912776635150        2.08360634833995       -0.08877996281840
H            3.58487115320614       -1.67245560127030       -0.13094885132630
H           -1.85480198888095        2.93928388059853        0.55750165894791
H           -2.43339060741822        3.09407358644175       -1.12242753577284
H           -3.22882323277549        1.84428070063666        0.07209830150257
H           -1.05579610720661       -3.23497624316768        0.93213049386977
H           -1.04979734570364       -3.22932378632229       -0.84595214867431
H           -2.49378537405295       -2.69637611477893        0.04192305418035
H            1.38406000809841       -2.97032746968085       -0.06700000990918
25
 energy: 15.177435733980 xtb: 6.6.1 (8d0f1dd)
C            3.24352766543295        1.15452605385159        0.06536859894797
N            2.30117859336348        0.08561650618269        0.00315827388424
C            2.61100567281848       -1.26360222230444        0.00825123585365
N            1.42641782570645       -1.96500326254647       -0.03783762125420
C            0.40245400446279       -1.08880849459457       -0.00131859372221
C            0.90537312849001        0.20332251826003        0.02933423410582
C            0.07768691542000        1.35472611212509        0.02358075676233
O            0.44848823337263        2.52790692857420        0.11427253713466
N           -1.33060748616932        1.05799708165612       -0.13184340604749
C           -2.24983154251256        2.25636617748727       -0.18172435584247
C           -1.84621441644460       -0.22007319131914        0.03042532929848
O           -3.02785635929295       -0.46954348919618        0.14785697147802
N           -0.93899147005635       -1.32309995682874        0.03784738786980
C           -1.40662794939418       -2.69893589429871        0.04365460507084
H            3.74128815769294        1.18758351914464        1.04024602049360
H            4.00346817400924        1.03228563848018       -0.71046642949126
H            2.69898702214169        2.08368199974694       -0.08856380644246
H            3.58451858371883       -1.67292156650806       -0.13386166540444
H           -1.85417098425695        2.93931759415602        0.55727047883415
H           -2.43366571254688        3.09377473445933       -1.12235404222767
H           -3.22899687151475        1.84509557504944        0.07252796247634
H           -1.05576063595989       -3.23487915107635        0.93213411916978
H           -1.04947481318388       -3.22937043895918       -0.84596912195063
H           -2.49359009406701       -2.69649260693430        0.04164355967739
H            1.38360902670614       -2.97044156243549       -0.06659913252705
25
 energy: 15.213490558999 xtb: 6.6.1 (8d0f1dd)
C            3.24317606816187        1.15452676954761        0.06603449146753
N            2.30114968997770        0.08543415873222        0.00337798905128
C            2.61199097168979       -1.26450150711165        0.02165349466618
N            1.42659918538433       -1.96521126300105       -0.03697347188004
C            0.40295613923352       -1.08924149379971       -0.00274901725698
C            0.90542638316785        0.20280139216521        0.02737169892785
C            0.07748673546030        1.35424816494493        0.02234653083087
O            0.44748521188343        2.52729944900512        0.11346228233225
N           -1.33141644346405        1.05803583253700       -0.13367086183170
C           -2.24985264589199        2.25692261673511       -0.18102340426312
C           -1.84574736925340       -0.21987780481932        0.03026552609459
O           -3.02701851583191       -0.46981825506574        0.14965153011841
N           -0.93844303153084       -1.32324466351402        0.03618753232658
C           -1.40620213371566       -2.69889745556365        0.04320411591856
H            3.74105366488551        1.18777701997857        1.04081590227359
H            4.00326163163515        1.03272175644958       -0.70984685378596
H            2.69865497037498        2.08371344048848       -0.08810470095756
H            3.58287792691954       -1.67259083506632       -0.14561379008147
H           -1.85263053195501        2.93873631466185        0.55750596564661
H           -2.43480729743792        3.09511441858679       -1.12259157348736
H           -3.22947086755864        1.84685128758488        0.07311124271690
H           -1.05557976392061       -3.23428968462093        0.93219310047834
H           -1.04879431351749       -3.22983998677579       -0.84595248966678
H           -2.49311867672986       -2.69694362716714        0.04108574419589
H            1.38317767996973       -2.97069744274007       -0.06470708768727
25
 energy: 15.037272334286 xtb: 6.6.1 (8d0f1dd)
C            3.24310335649852        1.15443006799007        0.06629359985333
N            2.30095773040215        0.08541645956831        0.00381032818389
C            2.61260335991379       -1.26490555188336        0.03079474350276
N            1.42656999746032       -1.96525813865643       -0.03623173253415
C            0.40300494485594       -1.08930667315806       -0.00358860719966
C            0.90569650826076        0.20255143077044        0.02652745361924
C            0.07760495917835        1.35433812375363        0.02163705458544
O            0.44771616737305        2.52719414219964        0.11247888267963
N           -1.33115383400211        1.05813304202595       -0.13378285160449
C           -2.25003408260664        2.25730237592557       -0.18068268231642
C           -1.84549348629429       -0.21974544202417        0.02974646042113
O           -3.02695118978828       -0.46965483071648        0.14914036058780
N           -0.93828526465884       -1.32309126562614        0.03503076938027
C           -1.40619733365586       -2.69873754265102        0.04300118744174
H            3.74114817213611        1.18764510969894        1.04092154612076
H            4.00307130127952        1.03237056905518       -0.70972072340671
H            2.69881911686664        2.08371861302856       -0.08802076882789
H            3.58135877263485       -1.67127703759101       -0.15357809156047
H           -1.85307427784520        2.93861193663364        0.55827574928751
H           -2.43444766294119        3.09430637805877       -1.12150160577661
H           -3.22939733841076        1.84630701803729        0.07253795608484
H           -1.05544234972580       -3.23378374088901        0.93216410471969
H           -1.04893867968802       -3.23004569598004       -0.84595899172020
H           -2.49309428683718       -2.69675361345435        0.04104832670033
H            1.38307006753046       -2.97073713194399       -0.06330857207454
25
 energy: 15.079884714807 xtb: 6.6.1 (8d0f1dd)
C            3.24311659107598        1.15424265599462        0.06634595169838
N            2.30068206944265        0.08532648810407        0.00443706322756
C            2.61298365354336       -1.26499317149340        0.03627206581857
N            1.42650870054095       -1.96526445403955       -0.03572045430582
C            0.40285042589929       -1.08924837257268       -0.00370859246916
C            0.90611069452926        0.20234483032611        0.02683820548617
C            0.07776831272935        1.35457744266550        0.02175326961067
O            0.44835398489018        2.52715763968579        0.11182705853988
N           -1.33036066018624        1.05808396276131       -0.13213798189906
C           -2.25025331741119        2.25699422065496       -0.18040621931990
C           -1.84537885934226       -0.22005744240505        0.02970882743624
O           -3.02711689501397       -0.46959273707942        0.14744638029561
N           -0.93824026819368       -1.32297651179938        0.03474240028531
C           -1.40629018767786       -2.69874775739461        0.04294750256252
H            3.74135058939250        1.18738795480578        1.04078779273769
H            4.00282202127934        1.03161068739823       -0.70984776393295
H            2.69912595411753        2.08364055875410       -0.08811485330372
H            3.58016788578589       -1.66944951763220       -0.15933982041661
H           -1.85374300072338        2.93896548300548        0.55838528360308
H           -2.43461754086848        3.09476685605152       -1.12176793646256
H           -3.22927869980114        1.84522480405973        0.07172596598502
H           -1.05523011822900       -3.23360820690867        0.93201343547173
H           -1.04931531164023       -3.23012631438820       -0.84606688446293
H           -2.49318511944695       -2.69649602453003        0.04133465554994
H            1.38338376324438       -2.97073447185210       -0.06242145558844
