  72
        -99.25200892
 N         -1.7588208785        2.6963257625        2.5023619836
 C         -1.7317205674        2.1038080260        1.4011659896
 C         -2.9085536634        2.0131559571        0.4600439369
 C         -3.4412994634        0.5843597052        0.4564296547
 C         -4.3752845415        0.2005161929       -0.4794835290
 C         -4.9038366416       -1.0630849343       -0.5664838106
 O         -5.8451314817       -1.4313312224       -1.4578698382
 C         -6.3551884262       -0.3929485462       -2.2622312966
 C         -4.4441111583       -2.0545840134        0.3510334273
 O         -4.9881341469       -3.2786845990        0.2042301983
 C         -4.6777341778       -4.2841414294        1.1403602727
 C         -3.5057394588       -1.6809713009        1.3029577150
 C         -3.0144390454       -0.3835468259        1.3642878677
 C         -2.3963607430        2.3523488910       -0.9636693956
 C         -1.5105633237        1.2675041899       -1.6022431839
 C         -0.1581330847        1.1689951268       -1.0102256368
 N          0.4698454791        0.0369516955       -0.7096661408
 C          1.8579019303        0.0516215720       -0.3110253285
 C          2.7974186563       -0.3423540652       -1.4671435999
 C          4.2289458659       -0.2410141689       -1.0184561875
 C          4.9210937672        0.9533539179       -1.1342013654
 C          6.2331907484        1.0598231956       -0.6990507301
 C          6.8795327452       -0.0291222306       -0.1326357838
 O          8.1473539947       -0.0437284936        0.3195863710
 C          8.9322443562        1.1208620360        0.2054393492
 C          6.1756227915       -1.2583440600       -0.0040859158
 O          6.8794203829       -2.2633519407        0.5546947584
 C          6.2823009363       -3.5299256303        0.6954720171
 C          4.8643369433       -1.3402788771       -0.4451253710
 C         -0.1690671856       -1.2504058113       -0.8421397109
 C         -4.0257558936        2.9822061091        0.8855677731
 C         -4.7565620903        2.5478497540        2.1303276685
 C         -3.6373648214        4.4398634090        0.9277208775
 H         -5.6170164699        2.9925464454       -0.8478575451
 H         -6.7822342080        0.4024694538       -1.6437113570
 H         -7.1286031167       -0.8358236967       -2.8846252739
 H         -5.5677234709        0.0341312567       -2.8912125580
 H         -4.9434745768       -3.9803562129        2.1572673529
 H         -5.2761309264       -5.1464775232        0.8527732334
 H         -3.6166107624       -4.5520501235        1.1043246497
 H         -3.1540016875       -2.4037223983        2.0222287356
 H         -2.3056931558       -0.1260128530        2.1380726057
 H         -3.2702382812        2.4782937748       -1.6035336496
 H         -1.8472854674        3.2940963326       -0.9380289100
 H         -2.0354088490        0.3145652757       -1.5751025419
 H         -1.3884934798        1.5478498795       -2.6566509826
 H         -0.8417477127        1.6020935282        0.9842370888
 H          0.4216255746        2.0770909969       -0.9332095364
 H          1.9979129007       -0.6433233681        0.5215704707
 H          2.1242358771        1.0533774296        0.0324926056
 H          2.6224001815        0.3322015052       -2.3069628810
 H          2.5750839562       -1.3602886371       -1.7892313773
 H          4.4444855414        1.8132675221       -1.5799595943
 H          6.7479663389        1.9998919950       -0.8109581765
 H          8.5074440550        1.9488269084        0.7812026944
 H          9.0496895453        1.4238626304       -0.8392761115
 H          9.9051396094        0.8580888002        0.6163499484
 H          7.0452119580       -4.1638703765        1.1431674795
 H          5.4109578994       -3.4919646985        1.3572778684
 H          5.9894776065       -3.9459687066       -0.2735070360
 H          4.3257015962       -2.2711872194       -0.3599354496
 H         -0.3528055251       -1.4948597758       -1.8906286924
 H         -1.1225617020       -1.2611335156       -0.3083864263
 H          0.4745361399       -2.0152963541       -0.4151595215
 H         -4.8969194720        2.9283845354       -0.0520588037
 H         -4.0569682760        2.5728076434        2.9667539364
 H         -5.1472966181        1.5375367980        2.0371785910
 H         -5.5778779385        3.2252488543        2.3489414015
 H         -2.8838306894        4.5845554097        1.7021407012
 H         -3.2412803100        4.7929645489       -0.0205413672
 H         -4.5019802458        5.0475643216        1.1828001898
 H         -0.9073522222        2.7054155873        3.0545659995
