72
 energy: -99.287770420272 gnorm: 0.002190589374 xtb: 6.6.1 (8d0f1dd)
N           -1.81337941518111        2.78236697346755        2.14651245984417
C           -1.83675682248145        1.97593499970827        1.19393597585080
C           -3.02445211403906        1.75984180244808        0.29432578236376
C           -3.46758508311114        0.30697736072946        0.39302691540339
C           -4.38492331130412       -0.20918325976044       -0.52374448237273
C           -4.84353383446914       -1.51404731141418       -0.43246630244656
O           -5.73023104087023       -2.08906136576906       -1.26710359565401
C           -6.30180191143048       -1.33043611123197       -2.30643477580908
C           -4.36756717744287       -2.35344849663809        0.61434932570302
O           -4.86710168627013       -3.60048180197185        0.62669824803714
C           -4.48788282407734       -4.48644386743437        1.65560192900265
C           -3.45673110667064       -1.83192777444628        1.52200418134059
C           -3.01819182618261       -0.52089731863384        1.41358963079781
C           -2.54305405515860        2.07968778887866       -1.14455259746407
C           -1.53240454465432        1.07100151918500       -1.70892005407532
C           -0.15913036035972        1.27716639695311       -1.19646376060215
N            0.72056771688098        0.34514657629962       -0.95557086827623
C            2.07392042067563        0.67538592375963       -0.58048865159983
C            3.05888226196432        0.44752588816333       -1.74506726234435
C            4.45774283193496        0.33781269045545       -1.21077507797403
C            5.42171627074412        1.31898328226503       -1.40220978737681
C            6.69508412465079        1.18324264268033       -0.87169920643800
C            7.03401644816151        0.07646165932235       -0.09792912929690
O            8.22095434586927       -0.14270813804260        0.48762747046869
C            9.26225556698154        0.79633476716162        0.31841524414670
C            6.03551794778435       -0.90753721574970        0.12580314754146
O            6.38549215188335       -1.95433371707941        0.92773859743715
C            5.52581846316252       -2.73907039388359        1.48783136301358
C            4.78710044803048       -0.78365973563091       -0.46433116093695
C            0.41417449776416       -1.06194155767839       -1.01305522754715
C           -4.24449604547500        2.66224561906990        0.64967690124751
C           -4.78287757003353        2.35183465810862        2.04413572276711
C           -3.94770696278599        4.15525689347886        0.53578642246629
H           -4.76065487209958        0.42160067186720       -1.31233901588723
H           -6.85514007727457       -0.46999357573901       -1.91828771091904
H           -6.99199570350211       -2.00281229972029       -2.81229162912550
H           -5.54386952275051       -0.98927981917335       -3.01895919951696
H           -4.77658588429912       -4.10329907636312        2.63875528802806
H           -5.02528350053978       -5.41157412847585        1.45638984692419
H           -3.41141753306239       -4.68109268222872        1.64046361282813
H           -3.08603894722557       -2.43907275720873        2.33132656539224
H           -2.33232331301381       -0.14648072580188        2.15705562254481
H           -3.41143629044894        2.10514685643740       -1.80177346355382
H           -2.09761623529502        3.07478598691231       -1.15304151495820
H           -1.88489982571140        0.05405307861749       -1.53640303672560
H           -1.49006143928126        1.21875416456248       -2.79564912818082
H           -0.96866518637272        1.36460016787980        0.89235919611100
H            0.17765494716146        2.30182899686530       -1.10485720754424
H            2.35658627160954        0.00994835136983        0.24379558428863
H            2.12931195008553        1.71131661674086       -0.24299775634451
H            2.97890046179632        1.25909239463120       -2.46984163423715
H            2.80102549919831       -0.49088957990968       -2.23827344537388
H            5.18783995033433        2.19878617018085       -1.98231402644822
H            7.42326560743440        1.95603027749393       -1.05542019580495
H            8.99092537809912        1.77093023070081        0.73322303164935
H            9.53266159461759        0.90572725015368       -0.73519255477243
H           10.10978417176243        0.39237724259901        0.86878665581110
H            5.95548680217356       -3.53289527587567        2.07563309301500
H            2.49455395038811       -1.76391063123432        0.91416093667514
H            4.45395159253516       -2.60006997906982        1.42171479866499
H            4.04675817800221       -1.55235372467805       -0.31864007669341
H            0.48237086263297       -1.44047874604136       -2.03346457882424
H           -0.58650660919634       -1.25727907139009       -0.63040506808388
H            1.12984904666172       -1.59840129971827       -0.38298964873638
H           -5.02944437575814        2.41611377533883       -0.07516738649125
H           -4.04482200153217        2.61443891020665        2.79567794508947
H           -5.03213005233672        1.29835075630976        2.14557163944717
H           -5.68210262319578        2.93478451737153        2.22528539950676
H           -3.12898206040701        4.42718021485826        1.19483467649200
H           -3.70484882163921        4.44755060910106       -0.48241121011234
H           -4.82781501079100        4.71637711871146        0.83884087024376
H           -0.95520658623728        2.86621915949792        2.68186219105976
