72
 energy: -99.389477607149 gnorm: 0.004161892850 xtb: 6.6.1 (8d0f1dd)
N           -1.60096854787279        2.27990305308295        2.27321323954562
C           -1.67747929232010        1.52464885894891        1.28094382853166
C           -2.85849491609067        1.48224764322233        0.35049398382220
C           -3.41363169291341        0.07019523033747        0.30137122150285
C           -4.30069902338573       -0.30126113261208       -0.70825445050797
C           -4.88765614978941       -1.55693206131521       -0.73123410093917
O           -5.76008098965104       -1.99112569032493       -1.65962845612573
C           -6.17544787402378       -1.11754757147464       -2.68293648843435
C           -4.57907215813612       -2.49417160004772        0.29542577784677
O           -5.20294839991895       -3.68098046203204        0.20251769157685
C           -4.98647547824773       -4.65442404788316        1.19860178178869
C           -3.69044186085745       -2.11836471255265        1.29323007621968
C           -3.12110527007867       -0.85450261471443        1.29654202896441
C           -2.30716747146661        1.91378400341747       -1.03418957287000
C           -1.39602673347523        0.89715731739877       -1.74065694870922
C            0.10882858737119        1.20389134167638       -1.64783056140628
N            0.72980842786703        0.61381408632709       -0.47350854626035
C            1.74815866151130        1.42697991519008        0.18939896879527
C            2.95387532702844        1.69681930261041       -0.65066268871769
C            4.19688169543339        1.09579860098300       -0.55337539232585
C            5.23764352289071        1.51934760010765       -1.42915892480318
C            6.49484390674927        0.97777856804336       -1.36969238501587
C            6.79866017697234       -0.02809632725252       -0.44684358484796
O            7.98250961085198       -0.62399416566573       -0.30113285886478
C            9.07402452064084       -0.22978961535967       -1.10263133809920
C            5.76850751598949       -0.48756051929684        0.43746590161631
O            6.15598863172405       -1.46891316316264        1.27650440162812
C            5.22674051115601       -1.99757654569462        2.19249053688936
C            4.51407620317212        0.06824065667670        0.38018098488785
C            1.10429214635710       -0.76987836350854       -0.64077304464100
C           -4.02525634868921        2.42533089468595        0.77157381145540
C           -4.58910592812972        2.04798128704655        2.13903030841079
C           -3.64347343924368        3.90286810538614        0.76667234285489
H           -4.54313977232880        0.40515081823760       -1.48428607080934
H           -6.66582707162064       -0.22823734675618       -2.27551208118053
H           -6.89123026315461       -1.68288566240360       -3.27667596665119
H           -5.33702096514861       -0.81590121559575       -3.31858583426580
H           -5.30598062876263       -4.29728102202270        2.18201975797819
H           -5.59534801539328       -5.50868437865526        0.90953599199782
H           -3.93547083255347       -4.95586807322613        1.24251232931043
H           -3.44470952752112       -2.80386554041018        2.08789823631418
H           -2.45824455134998       -0.58741516327359        2.10484351749621
H           -3.16052121894026        2.12953849769379       -1.67668919460886
H           -1.76622782668673        2.85123963815437       -0.90487974987339
H           -1.58775587236509       -0.10497646815065       -1.35540555645193
H           -1.65571693089721        0.88796471224334       -2.79994736855454
H           -0.86760988271061        0.85968277236538        0.95296681908636
H            0.25146617764407        2.28593079990388       -1.61118815226701
H            2.01707622684740        0.91455124928637        1.11622811593553
H            1.27639604153794        2.38139403258051        0.45128040469447
H            2.82018881107522        2.42965596542847       -1.43366306310644
H            0.59336720845018        0.83365555066395       -2.56255157626074
H            5.02383005575710        2.29435969806317       -2.14815411743110
H            7.25612019479013        1.33372213222480       -2.04579056243733
H            9.30384228949313        0.83068990166013       -0.97024487231524
H            8.88819773760681       -0.43582906742002       -2.16111638546509
H            9.91756164717562       -0.82698908603191       -0.76084140291658
H            5.76223657358174       -2.77111145724355        2.73887179283449
H            4.87885418492868       -1.23353748484421        2.89476819777426
H            4.36932985593160       -2.44498578410157        1.67968903022689
H            3.74614313607510       -0.28124103727418        1.04952374027764
H            1.97768199232552       -0.89505956361883       -1.29757414502415
H            0.26774111292963       -1.31708037497956       -1.07375050471691
H            1.33627754301174       -1.20505671487920        0.33127345210970
H           -4.81927837610669        2.27705029341272        0.02950811454711
H           -3.84183610537593        2.21836332021596        2.90859440357929
H           -4.89481892365770        1.00447143485853        2.16684283694748
H           -5.45720177192374        2.66406471583300        2.35922955927855
H           -2.80587760134383        4.07627694747717        1.43606944597611
H           -3.38814825986406        4.25396327159405       -0.22959351897405
H           -4.48791376178714        4.49002841014305        1.11865174556182
H           -0.74922490405591        2.26672292914117        2.82425993022910
