  25
        -42.10595548
 C          3.2475864875        1.1300568220        0.0364944813
 N          2.2860888587        0.0607289265       -0.0003878267
 C          2.5489776182       -1.2431169771        0.0041952084
 N          1.3911026737       -1.9444929291       -0.0033290709
 C          0.3590930032       -1.0552705461       -0.0103250648
 C          0.9160943501        0.2180494886       -0.0100402960
 C          0.1202565493        1.4058730022       -0.0285206986
 O          0.5002731803        2.5543790900       -0.0595221815
 N         -1.2881218949        1.0914800932        0.0046291766
 C         -2.1419548577        2.1228258593        0.0285185434
 C         -1.8573801179       -0.2153031532        0.0055141464
 O         -3.0462047670       -0.3772622895        0.0163559873
 N         -0.9685852536       -1.2882069441       -0.0101597736
 C         -1.4986244975       -2.6404246739       -0.0241296101
 H          3.7456326772        1.1559977992        1.0066182585
 H          3.9980660421        0.9901557039       -0.7404262473
 H          2.7287203144        2.0742312551       -0.1195888630
 H          3.5278905243       -1.6781611292        0.0109817134
 H         -1.7241994288        3.1133631531        0.0110378506
 H         -3.2128755941        1.9390949534        0.1319566472
 H         -4.9559910573        1.9328219727        0.5817142822
 H         -1.1695644774       -3.1854822460        0.8605787079
 H         -1.1835147679       -3.1610742098       -0.9284458653
 H         -2.5850176765       -2.5718633832       -0.0147400072
 H          1.3173082459       -2.9515390373       -0.0063248742
