  25
        -42.05353474
 C          3.1783986199        2.3877243841        0.1378222896
 N          2.8465538548        1.0020622385       -0.0860511910
 C          3.7813579546        0.1311462154       -0.2827880531
 N         -2.7712332411       -4.7135114254        0.4482593045
 C          1.0690800914       -0.6629501773       -0.1021893964
 C          1.5185713348        0.6147698952       -0.0674721497
 C          0.3616466018        1.5542830992       -0.0261529506
 O          0.5184866330        2.7549329859       -0.0188175915
 N         -0.8980143318        0.9790150648       -0.0027212413
 C         -2.0448229127        1.8764868232        0.0281893211
 C         -1.1988036274       -0.3784959693       -0.0043237207
 O         -2.3115719348       -0.8189726397        0.0535293141
 N         -0.0587994001       -1.1640762591       -0.0751556298
 C         -3.3863326068       -3.7887604616       -0.0972933719
 H          2.7611317513        2.7264400211        1.0869267676
 H          4.2583679747        2.5147506638        0.1477311943
 H          2.7427048046        3.0133127159       -0.6427379279
 H          4.8144498355        0.4302115592       -0.2737377366
 H         -1.6746450135        2.8993014991        0.0690148819
 H         -2.6499416101        1.7318082874       -0.8667821371
 H         -2.6574473941        1.6598574752        0.9028244502
 H         -4.1304996274       -4.0363465799       -0.8427185952
 H         -3.2783716672       -2.7209250632        0.1285975629
 H         -2.0776753023       -4.5625776802        1.1762804191
 H          3.5296820205       -0.9036998706       -0.4518088629
