25
 energy: -42.032865412479 gnorm: 0.009944145563 xtb: 6.6.1 (8d0f1dd)
C            3.70668308077695        0.85608540461901        0.14433190266799
N            2.58068399505771       -0.02116634924087        0.00985329174003
C            2.59433865191147       -1.31044064172336       -0.31557493909419
N            1.33601454298697       -1.78847421971966       -0.31509452791884
C            0.44638042590958       -0.79911221644977        0.00772543641807
C            1.24264645293880        0.37760547247145        0.24175974059687
C            0.91968262839483        1.59949950727123        0.68439158027265
O            0.63179845424035        2.67424857054865        1.03537560748113
N           -2.65162524406585        0.58691259274342       -0.57274968482861
C           -3.07497400491298        1.95626953404022       -0.46544567519280
C           -1.76417129541318        0.02534892309313        0.35928223526439
O           -3.09523024789017       -0.27753665662334        0.50555275997182
N           -0.87577206993171       -1.01222384479539        0.09323837427794
C           -1.35209222229760       -2.39216755857829        0.13566278248456
H            3.90860137770041        1.06240392661983        1.19633994123222
H            4.58356926230162        0.39577256820588       -0.30074472467379
H            3.50472778260124        1.80112261719560       -0.35863904901147
H            3.46867725894329       -1.88341878617872       -0.54970535449195
H           -2.33884220153622        2.56920024298288       -0.98112313874325
H           -4.03514093191284        2.04225941402032       -0.97107137485005
H           -3.18118271602207        2.28566287848754        0.57011515481742
H           -0.82707862798153       -2.96864307392740        0.89711264849214
H           -1.23691153056512       -2.85465351305547       -0.84559491889456
H           -2.41297339388450       -2.37015695108819        0.37865404615858
H            1.08262208675155       -2.73615929931849       -0.55248049627628
