72
 energy: -99.422760402232 gnorm: 0.002492938781 xtb: 6.6.1 (8d0f1dd)
N           -0.86701130251988        1.20853086173316        0.82841149210586
C           -2.26959913164096        1.15631474203524        1.06439707288773
C           -3.16478941442029        1.96196943058388        0.05339185130964
C           -3.93501599172585        0.67339466923923       -0.12402877045812
C           -5.09142407450580        0.13023909311053       -0.86133588125485
C           -5.26217767756336       -1.32063979118142       -0.51894289368141
O           -6.28244293080910       -2.02882028071087       -1.01879088498549
C           -7.23615940506121       -1.41151299959808       -1.85043306584813
C           -4.38986322981100       -2.03467984574603        0.32409206978860
O           -4.72146920558586       -3.33986876011719        0.47886021621745
C           -3.94365669093311       -4.15012423685639        1.32884103927898
C           -3.29316581282845       -1.41984949754417        0.94817226457931
C           -3.12423014544483       -0.05929502991726        0.68747149418016
C           -2.38419565447981        2.34071044908281       -1.20978418421251
C           -1.38855530244785        1.24698316473242       -1.57950498856458
C           -0.29647686711627        1.15980806160647       -0.50797265427993
N            0.57849783655043        0.03101192944863       -0.72230852562141
C            1.96037631621222        0.17474511234517       -0.33011744045321
C            2.92024702541012       -0.40411536087503       -1.38748986686203
C            4.33575606163814       -0.16075226436898       -0.95621722634629
C            4.97596123563817        1.03303524350998       -1.25919107576096
C            6.26081832822441        1.28665785294374       -0.80757241278234
C            6.93675539337978        0.35016161822066       -0.03620828168157
O            8.17870514579916        0.49051932086211        0.46181524577267
C            8.89935686893378        1.67140335402682        0.19511872449038
C            6.29154861775428       -0.87948972789693        0.27679717327727
O            7.01763100235818       -1.73394385478357        1.02360411751644
C            6.47073118999945       -2.98453482888278        1.36780326250822
C            5.00437309264395       -1.10805324245536       -0.18581587735624
C            0.04010589792107       -1.29058198653924       -0.50168732300482
C           -3.96419359276749        3.14988562669902        0.62070484997903
C           -4.90172517460909        2.72509991821852        1.75213298136639
C           -3.04722744421090        4.26721913032692        1.11620153908098
H           -4.94158041305722        0.23650869515123       -1.94861798526391
H           -7.77102610102012       -0.61375180391699       -1.32601611384363
H           -7.94029325978898       -2.19573046358304       -2.12144787358469
H           -6.78044570095732       -1.00379113236979       -2.75735619900156
H           -3.94786798752133       -3.77647483634186        2.35730041057993
H           -4.41325102752326       -5.13142865971804        1.30183753805916
H           -2.91226335671599       -4.23408890569467        0.97144782177685
H           -2.63856710156462       -1.96837778886704        1.60310666644539
H           -6.00878464868697        0.69164678254181       -0.63965563150282
H           -3.08740942470640        2.50328704456118       -2.02829844983058
H           -1.83802367564287        3.26729713893869       -1.04056120937498
H           -1.90344807895489        0.29171950767574       -1.67994180112784
H           -0.91228882391032        1.47293257988082       -2.53302021655521
H           -2.43495601162549        1.43963095284907        2.10620211425512
H            0.33500875697737        2.05635247647754       -0.61582816755343
H            2.15815917888120       -0.32598197248857        0.63035665912194
H            2.18940537605328        1.23489337154993       -0.20686122728412
H            2.72111305914958        0.08552054043266       -2.34079462910694
H            2.73899076204780       -1.47250906091783       -1.50071151100766
H            4.47161274095816        1.77481756766994       -1.85924528506241
H            6.73196745922861        2.22208942933056       -1.06170320807092
H            8.39628025825155        2.54961075153708        0.61130387750946
H            9.05331437271578        1.81293943785474       -0.87867651113105
H            9.86293919107828        1.54190841425550        0.68424184536491
H            7.23779180577392       -3.48807157982339        1.95297965297195
H            5.56703423024629       -2.87350835234427        1.97548562774867
H            6.24315819718864       -3.58084471381516        0.47887541157125
H            4.50650167634728       -2.03698398347484        0.04414325243520
H            0.42514513510997       -1.97264660205458       -1.26126232780239
H           -1.04401226675865       -1.27595614396567       -0.57387013041641
H            0.31823609909783       -1.68820293235811        0.48377498751621
H           -4.57799077468783        3.53764030900683       -0.20094540440803
H           -4.34166732757986        2.44157793737759        2.63929870497718
H           -5.52628311025106        1.88434200970432        1.46244353042915
H           -5.55026593511663        3.55536023088113        2.01949190062088
H           -2.31389165241916        3.87849680531260        1.81796193424345
H           -2.52087895010129        4.75056899263774        0.29847961621393
H           -3.63826485833210        5.02586249546064        1.62260388746777
H           -0.31416717917712        0.71605711188043        1.51432924404257
