72
 energy: 68.493516459912 xtb: 6.6.1 (8d0f1dd)
N           -1.68268895811462        1.81421420938949        3.01573791024326
C           -1.35606331871543        1.31172976661481        1.91825607114602
C           -2.43080774989211        1.65557954003660        0.43021593978957
C           -3.38755663238635        0.51733650326153        0.50095284685673
C           -4.08325805930771       -0.05605899266929       -0.55636427524262
C           -4.70466717540757       -1.28025145891552       -0.37845599783585
O           -5.46445625644715       -1.87811961192056       -1.33738736470108
C           -5.63410350727101       -1.21731058344193       -2.55938827153004
C           -4.60095348227648       -1.99539589322376        0.82955573486446
O           -5.13851576942318       -3.24546177759366        0.86293379944314
C           -4.96563873817045       -3.96093868564638        2.05456995581479
C           -3.99336390790198       -1.38845408208587        1.90381761112169
C           -3.44606376022033       -0.13497161681374        1.74848166893932
C           -1.65650139254094        1.77466776423532       -0.88250916492285
C           -1.77735089094950        1.07249968510557       -2.20716850334299
C           -0.29503816364077        0.97077998819884       -2.48844937843541
N            0.45152158438748       -0.03567673463977       -1.90073506693881
C            1.67252556488706        0.23392223907972       -1.13913245448637
C            2.87156611866796       -0.34688454106716       -1.89139187992349
C            4.16981354867011       -0.21314793755878       -1.11376560728625
C            4.91553929468178        0.95016513763049       -1.21340223019973
C            6.14334517791764        1.08246825655121       -0.56055543790750
C            6.63639555900784        0.05759544735143        0.23431757748550
O            7.81812938196873        0.08233164088625        0.91009965680631
C            8.59096445299467        1.24806618473009        0.78781343177919
C            5.88678338905699       -1.12445121120768        0.36557438651629
O            6.44100674202155       -2.08866662691590        1.16792855364405
C            5.73093033323931       -3.28793233726786        1.32134174456203
C            4.67362940990112       -1.24004151925705       -0.29477176560035
C           -0.23173035602067       -1.25200785840956       -1.55107037237539
C           -2.97507706011765        3.11047179023220        0.63101733514992
C           -3.97383072817559        3.23317779387739        1.75899001132594
C           -1.73937366157414        4.04810431329667        0.84526037775550
H           -4.18944018045425        0.47752316617511       -1.47821400129373
H           -6.15228623162826       -0.25691845260812       -2.48918434269259
H           -6.26371975630702       -1.88099727578274       -3.14168347934218
H           -4.68036653787642       -1.04644340010966       -3.07344073147836
H           -5.44081494403225       -3.43806190608451        2.89212753244329
H           -5.46231316005419       -4.91454292198839        1.90211302520127
H           -3.89797495868727       -4.14208556749942        2.24435340584782
H           -3.88766854665116       -1.89672156840727        2.84543719791748
H           -3.02227032603981        0.29653750065779        2.63575996307389
H           -1.60176034303240        2.79080311964392       -1.23140184050965
H           -0.65342774101422        1.49463210973390       -0.59757017766985
H           -2.29005365904359        0.12797538557337       -2.18517898898287
H           -2.30004722125608        1.78254461757724       -2.84713922601520
H           -0.47514392137819        0.63934810418899        1.88616759330421
H            0.25184301564613        1.90534555571474       -2.56121365597673
H            1.64701223277286       -0.19100564415747       -0.11925992802949
H            1.82020638605645        1.30038223729332       -1.01874756093949
H            2.92560553785279        0.15363294805803       -2.86274707776067
H            2.62576897928127       -1.38504259103258       -2.09276006011233
H            4.53979629362554        1.76341467603762       -1.82997109533737
H            6.70594205270423        1.99711798866303       -0.68897016887416
H            8.04657770745905        2.12756382918104        1.15318744746411
H            8.84744061227316        1.43402539690663       -0.25997931672585
H            9.49157641175310        1.08355132650986        1.36987496122617
H            6.34141610351466       -3.93144953811419        1.95103850269948
H            4.76310697930045       -3.14023251481333        1.81449575395518
H            5.56077573841532       -3.77481981075128        0.35257708460887
H            4.10551578297026       -2.14744264673828       -0.17862334872376
H           -0.72978904839610       -1.69653759420838       -2.42103987898776
H           -0.98535572752476       -1.06439857474479       -0.75713002704505
H            0.51310159129009       -1.93472166311306       -1.14698346850719
H           -3.45105000643105        3.33772473229522       -0.32994508233787
H           -3.42703290327358        2.93880362364990        2.65235576657840
H           -4.78144618132625        2.52737557779779        1.61269488883079
H           -4.38229902433353        4.24143363076973        1.83584795776553
H           -1.06754967117637        3.65264177918629        1.62062038276051
H           -1.23494411522388        4.18699214368129       -0.10026636228141
H           -1.96877892644920        5.06133024233065        1.15178770983170
H           -1.08639017680600        1.55175273620661        3.79436949425019
