72
 energy: -4.747613195678 xtb: 6.6.1 (8d0f1dd)
N           -1.51812356631943        2.77639964655129        2.29993746153515
C           -1.55721412082232        2.10020840384747        1.23928809217973
C           -2.73638695866829        2.02649322705116        0.30073392354595
C           -3.33566509608522        0.64106418029468        0.36050926493618
C           -4.29871777662591        0.23629421622711       -0.56424496790715
C           -4.84401951794769       -1.03197798751198       -0.52023120884685
O           -5.80231388311342       -1.51748582798347       -1.36270923636471
C           -6.34166701695328       -0.64805390933588       -2.31941268262224
C           -4.40939876065481       -1.94550349323062        0.46088244910885
O           -5.00043578754382       -3.17420948111533        0.42387677811220
C           -4.67051763505993       -4.08512264750741        1.43957575032341
C           -3.45709079225011       -1.53439362703545        1.37131925308385
C           -2.92659432203339       -0.25451261090200        1.32060991575184
C           -2.17341670980203        2.22898221316436       -1.11931473651837
C           -1.27191021462985        1.14928616453989       -1.69788519520836
C            0.01339478591146        1.11726899905927       -0.96166337419905
N            0.63143317032365       -0.05357455450924       -0.57596137205789
C            2.00218340535716       -0.04027004650524       -0.18612381323682
C            2.94067621170103       -0.54294817944558       -1.30597420720612
C            4.36453388513540       -0.43312168068904       -0.86042254828056
C            5.08085775537611        0.73342013404646       -1.05513472417018
C            6.38569341878763        0.84999569860854       -0.59543000183380
C            6.99389685821738       -0.19959473388091        0.07354521201529
O            8.27168350531908       -0.20325120623134        0.55279508007817
C            9.05310740196456        0.94575541343514        0.34834546201252
C            6.26605784419179       -1.38876191042686        0.28942139110366
O            6.94004097484650       -2.37421604147958        0.95172792511862
C            6.28155300457640       -3.59429281514415        1.16550157129756
C            4.96791233760641       -1.48708944821037       -0.17484540449965
C           -0.05153138238746       -1.31165014726018       -0.64031419576190
C           -3.85489407008501        3.07195307531575        0.58536135537320
C           -4.49515413655455        2.81041498545806        1.93906005032108
C           -3.32262136860953        4.48881215719238        0.56729768265134
H           -4.61188405280562        0.92365110902030       -1.33013440258323
H           -6.78864972075859        0.23380576481211       -1.84595506381525
H           -7.11734487004844       -1.21458633218999       -2.83287233835370
H           -5.58674958388012       -0.31246524767533       -3.04117911159620
H           -4.89347944637261       -3.68078883049325        2.43260763689737
H           -5.28957198912814       -4.96463542610482        1.26320723510373
H           -3.61336445083220       -4.36901720665464        1.39857418876819
H           -3.08536048385041       -2.20056236698743        2.12634032282560
H           -2.17255854957863        0.04691565344709        2.03099262863598
H           -2.99387880027889        2.41990784797876       -1.79068601595029
H           -1.54832775020982        3.09196275167487       -1.09356761726928
H           -1.79856073347297        0.20417474406259       -1.66557460645614
H           -1.09378660311914        1.40599069846041       -2.75022129210205
H           -0.68816075137198        1.58331167472427        0.79080510037672
H            0.65194654765354        1.98286014287175       -1.04941957784154
H            2.12947630988078       -0.66065696596867        0.71120813832583
H            2.27234267237515        0.98667854968692        0.06002775336316
H            2.76785244890794        0.07255291556108       -2.18807097187090
H            2.68483331436119       -1.57451545119919       -1.55346258600252
H            4.62516125358656        1.56341001918335       -1.57598283944048
H            6.92127097190642        1.76917485824711       -0.77532665762441
H            8.60735432149366        1.82402412007328        0.82894805662400
H            9.17364814979565        1.15983857914988       -0.72024950599258
H           10.02570427577038        0.73097703980809        0.78790159995598
H            7.00150116547257       -4.23310676553652        1.67588043082290
H            5.39399799831642       -3.47686737204699        1.79777913701919
H            5.98972845747040       -4.06521303633941        0.21852239674351
H            4.39816411122704       -2.38791696933920       -0.01936495801223
H           -0.23425904481212       -1.63632639344331       -1.67300858434402
H           -1.01201105464260       -1.24487006377982       -0.12520637782877
H            0.55787673024286       -2.06273828288922       -0.14392302472917
H           -4.62258745733000        2.98369172008909       -0.19601532323332
H           -3.73784342117552        2.90745281000768        2.71351248287431
H           -4.89244869163078        1.80391818066972        1.95763112185326
H           -5.30319773197384        3.51848410948148        2.12327606123835
H           -2.52055683401505        4.57677853761639        1.28955702100694
H           -2.93165339324577        4.75045993159659       -0.41222490248066
H           -4.09515966318259        5.19348467704758        0.84316112044820
H           -0.64773127000779        2.75331327349381        2.82825292936673
