72
 energy: 42.724622211002 xtb: 6.6.1 (8d0f1dd)
N           -1.52562477398316        2.53184737703091        2.56810664168466
C           -1.52341072771375        1.79044696157901        1.55290195080094
C           -2.61994838007649        1.84252758957886        0.48401310033987
C           -3.37191356692823        0.56890865935579        0.49184373289616
C           -4.22123162395410        0.15226249020956       -0.53026933382735
C           -4.81066164847284       -1.09408529269982       -0.47138869225956
O           -5.71682795592772       -1.61408856568137       -1.35215634275215
C           -6.13786075057982       -0.79047607247038       -2.39583363732154
C           -4.46999699172686       -1.96852132785311        0.57018874201809
O           -5.04782428052180       -3.20099812147853        0.53150332791959
C           -4.73676802151426       -4.05039970789367        1.60044590328979
C           -3.61816862111782       -1.52595052647780        1.55403097788599
C           -3.08864536336151       -0.26188202494215        1.52492884972461
C           -1.91383818703048        1.96363444535084       -0.83962885758819
C           -1.38022956976915        1.02957410656253       -1.86745880423252
C            0.04210762195033        1.00962178884266       -1.46683560032513
N            0.59765254062257       -0.06422798321009       -0.83555449058458
C            1.94761934126199       -0.00539861761744       -0.39613010849643
C            2.94026266264393       -0.51404161917221       -1.46068910410782
C            4.34046723050866       -0.39764624307207       -0.93995402575914
C            5.06087553966169        0.77338958040833       -1.10162324423488
C            6.34437585778474        0.89943922435139       -0.58067513411148
C            6.93077368525534       -0.14490537450872        0.12323699679072
O            8.19138580578087       -0.14414745816336        0.65099921582003
C            8.95423833404514        1.02094406157759        0.46385873880926
C            6.19731502756894       -1.32863983432828        0.31543880598719
O            6.83962629081890       -2.31508808410028        1.01813432871059
C            6.14190081694133       -3.51417382401719        1.21048821038982
C            4.92204282421039       -1.43790671833928       -0.21050056925866
C           -0.08240012404251       -1.31966317675221       -0.89662439064970
C           -3.65870345562894        3.05070597985423        0.60151599291775
C           -4.40017442563596        2.93218421964916        1.90825442644646
C           -2.92374990375273        4.35963795462128        0.63270169806135
H           -4.42815091661672        0.81095813452205       -1.35594972680908
H           -6.58876772330241        0.13163800691367       -2.01379917482932
H           -6.88975217430825       -1.35549200525356       -2.94387777555474
H           -5.30833497458210       -0.49267209743386       -3.05117543565980
H           -5.01225390839073       -3.59606972152177        2.55704675201028
H           -5.32208964822778       -4.95709892777143        1.45246540892128
H           -3.66819980361232       -4.29477034774357        1.61123171630437
H           -3.25993916974745       -2.15446618687612        2.32893314489886
H           -2.37622277321034        0.09484664371363        2.24536517344384
H           -2.31253495489862        2.71080867025672       -1.41739670629544
H           -0.96684149595125        2.25505935375609       -0.58758407628045
H           -1.91335365466417        0.10971680678763       -1.84525806949298
H           -1.51148104302899        1.53027798209388       -2.81594482829528
H           -0.68883347881950        1.13332150532283        1.27589652667774
H            0.59075482199568        1.94193899342790       -1.49220471752889
H            2.05192494305981       -0.57686131153821        0.53951985125687
H            2.15343269236159        1.04323349106581       -0.19895566495662
H            2.80295133663772        0.09620104188318       -2.34954094633458
H            2.68253201199201       -1.53961233665701       -1.72906792916046
H            4.61716997936616        1.59888976105275       -1.64369219140447
H            6.88236991301327        1.82250448882047       -0.74259444941168
H            8.45157266341192        1.89324694061941        0.89987060394814
H            9.08000148883562        1.23256626178601       -0.60556118239523
H            9.92413660855167        0.84600206175760        0.92419687440689
H            6.81545601782226       -4.17703304649072        1.75325706500937
H            5.22748205263930       -3.37642289555593        1.80092745472607
H            5.87562194822725       -3.97656997905809        0.24899201031042
H            4.34678757191114       -2.33308167807414       -0.06630596712823
H           -0.36171098687961       -1.64654417015945       -1.90347238562710
H           -1.00038462722170       -1.24149682881419       -0.32193682974091
H            0.56762276384819       -2.07135057849884       -0.48124617001878
H           -4.37092031768522        3.05294600558098       -0.24230758416556
H           -3.62873723185377        2.95524829419018        2.68620177243322
H           -4.89844730749109        1.98021068485250        1.88863730695536
H           -5.13301031053594        3.73062731840397        2.05366084177843
H           -2.13017090183759        4.28574639316591        1.36672618851555
H           -2.47901691755961        4.57378467756013       -0.33199794673028
H           -3.53933013555756        5.18910074239891        0.93167875664995
H           -0.73101522381246        2.47193173585107        3.19420298704282
