72
 energy: 45.232312112685 xtb: 6.6.1 (8d0f1dd)
N           -1.55064412435919        1.99409019999048        2.90759278956880
C           -1.45367145932515        1.38021513005716        1.81523578146134
C           -2.43476927588580        1.68538064464877        0.51951443758198
C           -3.37244938788475        0.51946588212364        0.53768320259749
C           -4.09384231882827       -0.01282355276616       -0.51996061865520
C           -4.73197260161880       -1.23242145310596       -0.38858943928392
O           -5.53251986224876       -1.79945267341401       -1.33529499436876
C           -5.76140928216196       -1.09016096405106       -2.51683258809746
C           -4.57878773964376       -1.99130542386428        0.78105774733921
O           -5.12557728165647       -3.23589971594868        0.78761131833140
C           -4.90722886631505       -3.98960603320737        1.94501810759174
C           -3.91694998443651       -1.43130365221974        1.84525234421281
C           -3.37232849500968       -0.17615662481944        1.74179637892253
C           -1.53053540191522        1.65319364270919       -0.70781756413448
C           -1.69792672303383        1.10055655790626       -2.09208423489639
C           -0.19892763603931        1.00146808669072       -2.27766093283804
N            0.50149558774444       -0.03618329087188       -1.68947680400133
C            1.74511234215220        0.15917378053977       -0.95730308930659
C            2.90046575966565       -0.39799333524366       -1.79267706858759
C            4.22676664604915       -0.27076693150886       -1.07246141836523
C            4.96396076656848        0.89604744185633       -1.18574633309479
C            6.20770640379318        1.02787310404495       -0.56559866918086
C            6.72841354898647       -0.00292980623839        0.20507398563282
O            7.93405051523280        0.01428534422708        0.83946055030434
C            8.69860538509324        1.18417851604627        0.69848198869631
C            5.98321553674972       -1.18434776208098        0.35248759274799
O            6.56200457231969       -2.15680379186301        1.12829441419980
C            5.84733051648306       -3.35123284274162        1.29181967021210
C            4.75225828725717       -1.29917410443314       -0.27436410468522
C           -0.17983910741247       -1.27983921498786       -1.48523541049812
C           -3.15572094393698        3.08880910557728        0.61651434703013
C           -4.09495219414860        3.15762057026871        1.79879038281893
C           -2.04706997408781        4.14665212366463        0.77565556832306
H           -4.20571769603603        0.55977216146273       -1.42049924987016
H           -6.25936389189549       -0.12992616717160       -2.36163950723060
H           -6.43037398744205       -1.71812918835187       -3.09687440859287
H           -4.83438413415744       -0.88705120645580       -3.06736748739328
H           -5.33187053575850       -3.48160104949995        2.81630351631527
H           -5.42726658569941       -4.93106060432709        1.79115895222791
H           -3.83429891867590       -4.18521231250151        2.08021680437031
H           -3.73739444422858       -1.97982025395753        2.74132819354309
H           -2.87657650306030        0.22786588303205        2.60242036137280
H           -1.14659574269405        2.63437016740336       -0.93996718422697
H           -0.72290230268123        0.99325914444521       -0.37182954399159
H           -2.20595538899015        0.15110018781604       -2.09153050939099
H           -2.19539423201137        1.79304980043181       -2.77321371371820
H           -0.69511271433720        0.58133572634913        1.69168350051193
H            0.35270246484753        1.93224422409072       -2.29281532159329
H            1.75298221559972       -0.31356620931250        0.04512807689701
H            1.90346752881166        1.21916997157460       -0.80013795293502
H            2.90200132623880        0.13833499866199       -2.74303073561972
H            2.65164728982885       -1.42951126767337       -2.03125077859110
H            4.56705005819656        1.71309243305178       -1.78212110326045
H            6.76247479239193        1.94609492981025       -0.70285035109139
H            8.15598414890195        2.05897946601454        1.07924716218399
H            8.91022731921505        1.37898634166131       -0.35861474301479
H            9.62358320114422        1.02448697023660        1.24260930877358
H            6.47018666326820       -4.00658846410356        1.89776283924788
H            4.89296679894384       -3.20253393912991        1.81099716042838
H            5.64795881202973       -3.82814630927012        0.32226977877362
H            4.18217053215326       -2.20206954332796       -0.14966103932309
H           -0.67391406540054       -1.67048897260795       -2.37505587359859
H           -0.95405873246119       -1.16310362191390       -0.72381158023373
H            0.56399022399984       -2.00211083191594       -1.19108258239649
H           -3.70537528713991        3.23950980651651       -0.32183045143975
H           -3.45142457241379        2.99746606186498        2.66965597764403
H           -4.81898856903653        2.36393263354745        1.70517357583767
H           -4.61787912339642        4.11180180534376        1.88019719056385
H           -1.32773128618659        3.84457579426501        1.54790295431913
H           -1.57296769199279        4.30872634635410       -0.18095979351730
H           -2.38967566473263        5.12176321715296        1.07524803209972
H           -0.91155469177467        1.73937064324498        3.65713150469592
