72
 energy: 53.076076119723 xtb: 6.6.1 (8d0f1dd)
N           -1.61658923893180        1.89344408858120        2.95688161363806
C           -1.40722690081760        1.34710797605234        1.84862476793704
C           -2.42927298720530        1.66815611738408        0.48362046545539
C           -3.38206423185210        0.51759576255850        0.52675827155871
C           -4.08745938105497       -0.03521904256293       -0.53273201341284
C           -4.71828724123903       -1.25712562528734       -0.38033503882048
O           -5.49716358308054       -1.83836676145491       -1.33539937630126
C           -5.69473146247134       -1.15385012199235       -2.53863048741652
C           -4.59229969430880       -1.99322143176497        0.80978901937558
O           -5.13387132753464       -3.24068814426899        0.82920641585679
C           -4.93847523206673       -3.97539654872200        2.00383650928892
C           -3.95996994283861       -1.40989540878000        1.88099312485375
C           -3.41296949299096       -0.15568955503529        1.75451809888438
C           -1.59317187016779        1.71772462586041       -0.79506277693502
C           -1.74725461255645        1.08870128455870       -2.14946405744032
C           -0.25378365760983        0.99019663080498       -2.38994751173253
N            0.47542971512793       -0.03338281022108       -1.81050621049161
C            1.70619205702228        0.19676926563464       -1.05515888469920
C            2.88618819689819       -0.37172571137574       -1.84663540580960
C            4.19791750999017       -0.24169988820758       -1.09451930905087
C            4.93975746079676        0.92334927392409       -1.20031339163297
C            6.17550488219677        1.05538167928189       -0.56323603309296
C            6.68222731915793        0.02759962913934        0.21998024432398
O            7.87571907679803        0.04866180993275        0.87574036546388
C            8.64395302140676        1.21684880944504        0.74434310509271
C            5.93465598279010       -1.15405379319647        0.35892602843487
O            6.50093624419378       -2.12239449793177        1.14853918050158
C            5.78806366975765       -3.31892543917312        1.30696035925610
C            4.71269297080537       -1.26925696955884       -0.28539571750637
C           -0.20199737271168       -1.26915143011703       -1.54172578018943
C           -3.06329980329950        3.10056586688179        0.62450507735670
C           -4.03257975505456        3.19622293034422        1.78003179477671
C           -1.88754160358211        4.09959670649382        0.81089527752301
H           -4.19264661432640        0.51915823267859       -1.44182589904671
H           -6.20335726040740       -0.19269120668713       -2.42836107744165
H           -6.34385765445174       -1.79991160170050       -3.12047054180815
H           -4.75353017401926       -0.96793192265858       -3.07049405733725
H           -5.39016601603930       -3.45978636417764        2.85775114700187
H           -5.44635194471898       -4.92296050138182        1.84945621382737
H           -3.86770051869919       -4.16361340793991        2.16637630299935
H           -3.81956718609230       -1.93927104629301        2.80047305903441
H           -2.95716445858465        0.26045050659705        2.63210752696021
H           -1.36387795039443        2.72799615303223       -1.09556962706042
H           -0.67898120105733        1.23600992201799       -0.47638909969001
H           -2.25364505702538        0.13952130823034       -2.13710403225737
H           -2.26579030475854        1.79195995778011       -2.80488347969345
H           -0.57094427919626        0.62890929273110        1.75824835265910
H            0.29764226850754        1.92243613742635       -2.43147863222438
H            1.69689134834970       -0.25310680898199       -0.04338179297931
H            1.85969608542984        1.25979601186687       -0.91399302468691
H            2.91552815359191        0.14660111145361       -2.80823632439917
H            2.63946930820648       -1.40640369306545       -2.06872686988909
H            4.55370727026380        1.73856874271436       -1.80719650461468
H            6.73437953137756        1.97179794803016       -0.69599343248350
H            8.09963699079809        2.09378804013118        1.11683207075302
H            8.87804790157869        1.40726110606140       -0.30827780201787
H            9.55684435933890        1.05533022035303        1.30780967555078
H            6.40417085800841       -3.96867088486167        1.92517341768725
H            4.82671351643740       -3.17039050257255        1.81276738920829
H            5.60341390781001       -3.80074919581139        0.33761807837600
H            4.14396357729556       -2.17461581077537       -0.16477482512446
H           -0.71272230580923       -1.67941186217048       -2.41598616613625
H           -0.95162116046153       -1.12950509863817       -0.75043625379019
H            0.55336537335207       -1.97784442005177       -1.22956746137710
H           -3.57370291885209        3.28641964583803       -0.32865176722926
H           -3.43379460033997        2.96521814217417        2.66470817659800
H           -4.80077798924438        2.44601847202929        1.65980071301717
H           -4.49830628873850        4.17939139519670        1.85774121600420
H           -1.18902280941490        3.75235277211715        1.58494351534079
H           -1.39976220341746        4.25275440313670       -0.14051359171727
H           -2.17365397756822        5.09506615523619        1.11209690218455
H           -0.97702105155637        1.64261863459228        3.71362790762743
