72
 energy: 121.990343389776 xtb: 6.6.1 (8d0f1dd)
N           -1.70526181251125        1.61365712571295        3.37179014152564
C           -1.06006617774635        1.15002770424310        2.42633837188138
C           -2.59950297144839        1.69365967914211        0.03639923242261
C           -3.37870274079730        0.53703225437987        0.30768785683115
C           -4.07632769291820       -0.12753382657946       -0.70643146133922
C           -4.66029949068036       -1.34613216477920       -0.44207044779650
O           -5.39852979184738       -2.00529201538458       -1.36713131764601
C           -5.50978667195759       -1.40721998056287       -2.62508630868773
C           -4.55547200109500       -2.00131053036407        0.80281941151400
O           -5.08142637662813       -3.26129205639254        0.89277596018198
C           -4.99758144365279       -3.91108950580528        2.13595389247239
C           -3.98142101823708       -1.30886236294236        1.85350531110919
C           -3.46781091000472       -0.05208170545962        1.59224960083906
C           -1.89779063597106        1.93936154435334       -1.25642292432413
C           -1.81325573920188        1.01833629237132       -2.44033605395419
C           -0.34416533645171        0.91701828386005       -2.63929606120233
N            0.36563638424242       -0.00083476037252       -1.93625245077086
C            1.59568201747895        0.35053423127807       -1.26166413657914
C            2.80896835889366       -0.28452907925379       -1.92946088587793
C            4.09161582130456       -0.13630326353840       -1.13871246932263
C            4.84544819464378        1.02108414296129       -1.23784147591240
C            6.05348384414856        1.15409747422270       -0.55026511187807
C            6.51294310437523        0.13768206147818        0.27303299404904
O            7.66367469512666        0.17160578056233        0.99617065096124
C            8.45331776297671        1.32781158039890        0.89710451436874
C            5.75947448615123       -1.04764148071315        0.38806938641465
O            6.28226994281723       -1.99967742174889        1.21876014279438
C            5.58227879482826       -3.20833206994491        1.35872872474208
C            4.56815290593361       -1.16400747763565       -0.30708463065752
C           -0.32048397044214       -1.15528889084947       -1.39870763708168
C           -2.76717261657731        3.11082952236549        0.61164147913204
C           -3.80026891352394        3.30743593603491        1.71441283070574
C           -1.39099219359562        3.77971230574647        0.92734495910732
H           -4.23743697476967        0.38208596211303       -1.63815205070549
H           -6.04979605632250       -0.45466881424756       -2.63283139482619
H           -6.08701316885245       -2.11936401505931       -3.19802555888002
H           -4.52804619650084       -1.26090711189177       -3.09182647350497
H           -5.51865650164627       -3.36372494025776        2.93186227355226
H           -5.47199552303151       -4.88048048560488        2.00695841271898
H           -3.94943282767012       -4.07925795860237        2.41128743949475
H           -3.94452598143504       -1.75720208971278        2.85085423067656
H           -3.04785555864261        0.46564278404664        2.42394439809171
H           -2.34573865287769        2.82343324131633       -1.63970994930915
H           -0.86562313780116        2.23221243675366       -1.02078811448125
H           -2.32369985015071        0.07904104598951       -2.33372183769275
H           -2.28030032876179        1.61074894503106       -3.21507940865768
H           -0.10026007863232        0.62568482516304        2.44558432399850
H            0.17585646423630        1.84540210173613       -2.84397374478866
H            1.53269659612584       -0.00583888433674       -0.23127119062818
H            1.72840053770023        1.42330274962024       -1.23226375622201
H            2.91087612799209        0.16756136282509       -2.91830172312928
H            2.54113331220871       -1.33094921137716       -2.02975638274902
H            4.49526291176156        1.82810395380820       -1.87632772436316
H            6.62401842080696        2.06466789373738       -0.66706374352897
H            7.91471721125984        2.21544093568998        1.24721100021552
H            8.77041076362211        1.50047007619960       -0.13580324744230
H            9.32038301092653        1.15074735863959        1.52639446467599
H            6.18141108237333       -3.83299811096074        2.01670235894092
H            4.59866563123487       -3.06443393786306        1.81940855661858
H            5.45156595260263       -3.70921892836319        0.39284272695527
H            3.99675018561102       -2.07392235227645       -0.20729576348353
H           -0.76300495010399       -1.70082746585008       -2.23655066641836
H           -1.10325895845808       -0.89594753801241       -0.66181319954389
H            0.39685142586225       -1.77828192999534       -0.87234959604788
H           -3.16645446927617        3.57248542060648       -0.29541746161114
H           -3.39384473656821        2.84770002330529        2.61014082814252
H           -4.71869439321622        2.76002849722727        1.49386354391004
H           -4.04544657210329        4.37413945590489        1.81168320682450
H           -0.84138024767298        3.19313338611928        1.66214296802211
H           -0.83312969019106        3.94868733907413        0.00963895141225
H           -1.46833682799528        4.77775491086840        1.32614735083697
H           -1.31302391606357        1.51396355903854        4.29190815799770
