72
 energy: 75.637981686991 xtb: 6.6.1 (8d0f1dd)
N           -1.60202718599303        1.44504749916465        4.07890654421735
C           -0.76162267343328        1.00033777706109        3.30931958232360
C           -2.86177253644727        1.88530364330140       -0.42450371682435
C           -3.43543252354506        0.65203388297016       -0.05084355524837
C           -4.14508566824203       -0.16464498136236       -0.97408368431019
C           -4.62115338109839       -1.40276101838262       -0.61311376623230
O           -5.33898705739081       -2.22020561577602       -1.43921544684679
C           -5.64728439085222       -1.75079965038877       -2.72030630400734
C           -4.39506243932769       -1.91930731553048        0.68284729160867
O           -4.88187706358829       -3.18034033951713        0.91530823063215
C           -4.74808339796152       -3.72345411541656        2.20119756703387
C           -3.73377793460433       -1.12651675454668        1.60718649257972
C           -3.26880992545288        0.12462719231527        1.24961083104598
C           -2.56648661447330        2.16285928006566       -1.82396454471978
C           -1.72412083212969        1.08809031039973       -2.66051846046213
C           -0.32800911094383        1.14377058628768       -2.30170626087434
N            0.21834825180695        0.32275416869370       -1.38836720613615
C            1.53892095631441        0.57085403492329       -0.88580754994461
C            2.61131040375022       -0.16102774313885       -1.70303600837428
C            3.95978027877414       -0.05410844270120       -1.04369913482756
C            4.72777406639852        1.09008658203428       -1.16415272660085
C            5.94052510623413        1.21227288648046       -0.49622694240421
C            6.40681822368709        0.18777518694776        0.30866219553759
O            7.57803382017093        0.19330355019526        1.00379456678703
C            8.40620530250115        1.32308483062485        0.89804153855711
C            5.63846301180585       -0.99092343846521        0.43123698114149
O            6.17144718122960       -1.95269160626471        1.23710684142462
C            5.49250225318932       -3.17628411934031        1.36168487516132
C            4.44113577512574       -1.09762096653339       -0.25288117734689
C           -0.43052904049172       -0.89359946216526       -1.00448422387364
C           -2.53873190818738        3.04618020458456        0.48236384726360
C           -3.50859383267205        3.26215506766894        1.64449369092225
C           -1.06976290298412        3.09720021094195        0.92618679069513
H           -4.37537976788061        0.22462664111624       -1.95184891650147
H           -6.25270933300194       -0.83733800826630       -2.70026780151929
H           -6.22199910090702       -2.55198750284446       -3.17407436461484
H           -4.74392230131981       -1.56917586752906       -3.31688924422416
H           -5.24060729925913       -3.10420442190610        2.95692443588211
H           -5.22782824502538       -4.70002266388298        2.17584732651427
H           -3.69968836882420       -3.86673330055271        2.47109637922492
H           -3.56673157537856       -1.49744483583190        2.61057001407271
H           -2.72334080371489        0.69035684998506        1.98343904821690
H           -3.50038194041250        2.24671850160695       -2.35270682410706
H           -2.01994344511806        3.10353539227974       -1.88555755043287
H           -2.16845606963055        0.10645623779999       -2.52597857070896
H           -1.88436760515522        1.41048979739602       -3.68576903747558
H            0.24608752665979        0.62806145674046        3.50500733465966
H            0.20803379642748        2.04359649747851       -2.53939986281988
H            1.59110906303199        0.23688441722983        0.15177154880662
H            1.73530995667326        1.63972115979030       -0.92691656639084
H            2.63701436279233        0.27837732292419       -2.70198080627393
H            2.30504178554791       -1.20349193476442       -1.78661937509249
H            4.38134672777635        1.90436691981355       -1.78388669151286
H            6.51196577729970        2.12057707698323       -0.60741016561836
H            7.90896844756346        2.22563913151678        1.27241568252669
H            8.73076263763975        1.48908290994828       -0.13587397744132
H            9.27556346882934        1.10393033628935        1.51671402678605
H            6.11932657143465       -3.80018625036413        2.00181376323000
H            4.50944889974371       -3.04420927158056        1.82793610640968
H            5.36990479280282       -3.67076915074416        0.38743095469625
H            3.84988640012288       -1.99645086529002       -0.17358394254631
H           -0.65409881636619       -1.47602234682219       -1.89857461609653
H           -1.36189927838815       -0.71805244761397       -0.46277404677235
H            0.24276510745622       -1.47091193244004       -0.38096222428343
H           -2.67250081183047        3.91652686759119       -0.17509204041301
H           -3.23853081103637        2.61765970201145        2.46949598720928
H           -4.53556738841801        3.05079944983418        1.34205439195499
H           -3.46294217325402        4.30816994896892        1.95712468720406
H           -0.81501311143291        2.26569061548202        1.60317553569237
H           -0.41756465344158        3.09734102380871        0.04469438602337
H           -0.91006380165667        4.04196645856049        1.44003162973559
H           -1.54484910513319        1.59805857505240        5.08620017265556
