72
 energy: 114.267242621941 xtb: 6.6.1 (8d0f1dd)
N           -1.69726864972385        1.67602726531359        3.25772260558631
C           -1.14869716031550        1.20764008876953        2.25301277228872
C           -2.52801748752088        1.67792905637449        0.16700206130346
C           -3.37962994899015        0.53171021949058        0.37582677289993
C           -4.07690702175891       -0.10304411595359       -0.65305820259934
C           -4.67231860357746       -1.32563693566918       -0.41462758213637
O           -5.41508342726307       -1.96308923782613       -1.35574853007551
C           -5.54111543211084       -1.34512826352666       -2.60383542901122
C           -4.58186642938701       -1.99721983295758        0.82367342957119
O           -5.11738536975448       -3.25308689522649        0.89427579723091
C           -4.99839483937451       -3.92735909207892        2.12093284086719
C           -4.00758593962016       -1.33168984037083        1.88994292881162
C           -3.47107440447623       -0.07931808567533        1.64945573312375
C           -1.78517235620187        1.90323055183853       -1.12724483583170
C           -1.79814973964080        1.03498433222358       -2.36087947963501
C           -0.33419281627778        0.92555205544266       -2.61936485910364
N            0.39953987474352       -0.02864994616422       -1.97594384818185
C            1.61916350826713        0.31090744431785       -1.25036039945545
C            2.83541269064260       -0.30268881832956       -1.93895515752110
C            4.11678195446275       -0.15966513255506       -1.13726981636771
C            4.86828442052039        0.99986145641632       -1.23265471790398
C            6.08191188650682        1.13247535812344       -0.55403757397192
C            6.55097226878880        0.11332141840357        0.26104034804172
O            7.71069909713011        0.14447629124074        0.97077862304470
C            8.49449727238456        1.30418311097784        0.86504821680360
C            5.79812392541122       -1.07065680193051        0.38007921433248
O            6.33027468386424       -2.02651707873560        1.20305820772597
C            5.62696753529617       -3.23207133457486        1.34738282252358
C            4.60058993846110       -1.18663815340353       -0.30626469919677
C           -0.29055838305405       -1.19403649464750       -1.46449019983681
C           -2.83203803009616        3.11731694328716        0.62025384212068
C           -3.85935725542633        3.28844190445925        1.72322257366511
C           -1.49660408465900        3.89004927300356        0.91047212374826
H           -4.21717378254532        0.41104129492149       -1.58454398392846
H           -6.07467838979318       -0.38919495565156       -2.59337603076620
H           -6.13438344590496       -2.04194889985424       -3.18156927829703
H           -4.56677754756187       -1.19430895053344       -3.08463711109659
H           -5.50784354089363       -3.38935103988876        2.93025702848908
H           -5.48070406699034       -4.89155644319964        1.98240247473820
H           -3.94178885659417       -4.09991957115997        2.36724467736121
H           -3.95851114994877       -1.79963663250375        2.87241737005606
H           -3.06107202201981        0.41487291488368        2.50315849776406
H           -2.08476181493928        2.85800129225980       -1.50580345800062
H           -0.73750192104355        2.00779509796235       -0.86347750844785
H           -2.32036917943157        0.10199078480792       -2.27488645187259
H           -2.29827961471920        1.66510462217297       -3.08639155379715
H           -0.21609908639397        0.62830199252914        2.25144612838672
H            0.19289814078297        1.86232580734637       -2.77344918351118
H            1.56320866658458       -0.06629072550548       -0.22110486566386
H            1.75343961662924        1.38255069204435       -1.18272676385022
H            2.93084598786944        0.15925077864894       -2.92740810924288
H            2.57372315325146       -1.34748258904717       -2.06544730865023
H            4.51059571225130        1.80899456981465       -1.86514009032849
H            6.65051624343459        2.04406318748882       -0.67441429796833
H            7.95318967653064        2.18907969920678        1.21913672644911
H            8.79319207228386        1.48114466135211       -0.17260143823469
H            9.37171709605088        1.13165975222757        1.48059127272820
H            6.22889503313330       -3.86275605162200        1.99724002739225
H            4.64799584935775       -3.08683804924153        1.81784830110626
H            5.48407131379342       -3.72874650426687        0.38050789069585
H            4.03140864172931       -2.09656038218944       -0.20013429691326
H           -0.75877417567651       -1.71175487792377       -2.30951606640461
H           -1.05387864372466       -0.94486169960464       -0.69831244437024
H            0.43591902026724       -1.83636838079350       -0.96622091578673
H           -3.25287477825461        3.48543045181268       -0.32096925355889
H           -3.41179598967449        2.87899542444138        2.61964728138536
H           -4.74320901891765        2.68526394428953        1.52882285214027
H           -4.15377030109352        4.33910882907190        1.81275068994557
H           -0.90397044798015        3.36810534099951        1.67287972905852
H           -0.95553966445353        4.03729776628023       -0.02019758713280
H           -1.61883671228673        4.90219314162445        1.28631789328349
H           -1.23428703782678        1.50513764710607        4.13516778066383
