72
 energy: 22.028952109610 xtb: 6.6.1 (8d0f1dd)
N           -1.52614591947180        2.63474202298465        2.47411925337231
C           -1.53475460274465        1.90585413559678        1.44810110637336
C           -2.66226151793251        1.90672925979210        0.42710672248173
C           -3.36248586198143        0.59490988655060        0.44949189448621
C           -4.25339467731814        0.18647637590356       -0.54085901008670
C           -4.82370197067537       -1.06956016406165       -0.48982506322513
O           -5.74908083714850       -1.58055311584359       -1.35636218697039
C           -6.21134958139441       -0.73948885507007       -2.37033181701444
C           -4.44574847504054       -1.96023538048218        0.52703759337887
O           -5.02921445207511       -3.19152752295074        0.48669294111550
C           -4.70897312876932       -4.06102908021352        1.53820956098794
C           -3.55657553271835       -1.52988968052738        1.48534602898835
C           -3.02771031478410       -0.26041137442696        1.45228619494040
C           -2.02634031617321        2.05592935257220       -0.94168428823145
C           -1.32703323573867        1.05721985767741       -1.79424656616920
C            0.03071728377682        1.05327591274753       -1.23226255291815
N            0.61899384515923       -0.06848020680317       -0.72267539923886
C            1.97575144029906       -0.02520644275975       -0.30774910437804
C            2.94292845696302       -0.52835059966571       -1.39989985856126
C            4.35368346145775       -0.41387674713805       -0.91197294594881
C            5.07175533888192        0.75608684201931       -1.08504355968281
C            6.36309550135713        0.87966499645623       -0.58488655104825
C            6.95861964570257       -0.16650304515634        0.10636673088541
O            8.22662059977266       -0.16804025087778        0.61560687755986
C            8.99410610818345        0.99290132795878        0.42148946285197
C            6.22746038213422       -1.35181884921411        0.30724842600916
O            6.88116125533233       -2.33873553834911        0.99553437997856
C            6.19332285347498       -3.54322474281657        1.19500105434204
C            4.94399500103332       -1.45814613184561       -0.19790637655458
C           -0.06740189256517       -1.32022545236719       -0.78719488998227
C           -3.74045292909280        3.05718324629879        0.59570944166242
C           -4.44291777510600        2.88958475626723        1.92168012488402
C           -3.07837242936499        4.40472118229501        0.60830280527372
H           -4.49235199007190        0.85540640353415       -1.34850488282017
H           -6.65818948441110        0.16953448890496       -1.95164853959241
H           -6.97381606613673       -1.30155992780821       -2.90720217594058
H           -5.40612165858087       -0.42641219572072       -3.04845224788185
H           -4.96156543321298       -3.62164554637734        2.50834633032374
H           -5.30742880964235       -4.95895766744577        1.38501462018020
H           -3.64411776454359       -4.31909668739752        1.52942451437969
H           -3.18391381657600       -2.17199352023567        2.24690629330031
H           -2.29112649649057        0.07936101397706        2.15949714292180
H           -2.65944625719930        2.58007747002732       -1.57320212692037
H           -1.18643207145667        2.62736531196389       -0.78535267179088
H           -1.85917659550023        0.13140169601940       -1.78068729699317
H           -1.34547799646046        1.48191084327433       -2.79464915448877
H           -0.68223751237290        1.30370531523972        1.11564363712438
H            0.61829892958149        1.95516666195463       -1.32370850742347
H            2.09129617785704       -0.61408467312923        0.61470621322602
H            2.19723979272270        1.01824559958259       -0.09784796693938
H            2.78771461638019        0.08786083253699       -2.28189809125957
H            2.68495740101564       -1.55502982795409       -1.66480911836477
H            4.62223304176842        1.58332980210150       -1.61809791009175
H            6.89916761815997        1.80226228352093       -0.75265338266372
H            8.50706823586315        1.86657262163266        0.87171030798867
H            9.11323626221969        1.20585036661990       -0.64866603086468
H            9.96733956951815        0.80775740024562        0.87134089291964
H            6.88103674392439       -4.20101758332986        1.72606288296419
H            5.28786876311575       -3.41076150885579        1.79962666760277
H            5.91686451049363       -4.00651393621711        0.23732756767339
H            4.36932221943513       -2.35381083060406       -0.04980364248074
H           -0.30814715891377       -1.64603174844919       -1.80641219155673
H           -1.00351720026164       -1.24392412198750       -0.23828055719933
H            0.56410897565753       -2.07219583118463       -0.33674023615597
H           -4.47640626912319        3.03036884391574       -0.22550394446178
H           -3.66981698704222        2.93626041702418        2.69353817650732
H           -4.90251627146673        1.91656598621303        1.91328601663078
H           -5.20386186663383        3.65711911321289        2.08407877451501
H           -2.27905005517421        4.37946997771884        1.33774809373157
H           -2.64472440271766        4.63043143552467       -0.36037630015112
H           -3.74540280543731        5.19545681591430        0.90342781666152
H           -0.70593910790049        2.59415694329983        3.07064561096653
