72
 energy: 101.946097323036 xtb: 6.6.1 (8d0f1dd)
N           -1.69260778732522        1.48254546767033        3.71624736118358
C           -0.90580050882136        1.03591579370825        2.88481621801321
C           -2.75507369584560        1.79951603513377       -0.19437443836740
C           -3.40788882923536        0.59456676147292        0.13275639172733
C           -4.09689315275485       -0.15762487573028       -0.84229487181755
C           -4.63565110842443       -1.37897780240984       -0.52548325522460
O           -5.34663685302436       -2.12683416876147       -1.40296647511811
C           -5.51671438853690       -1.57760158197973       -2.67328689461576
C           -4.46830727475387       -1.97944186488695        0.74076510608404
O           -4.95974435709996       -3.25413356172195        0.88393826111449
C           -4.87113295261800       -3.84497785038244        2.15607752276483
C           -3.85444166126194       -1.22856687676508        1.72903954461490
C           -3.37685985080266        0.03847834531605        1.43267708130926
C           -2.21896135426288        2.05742768211306       -1.55473044125382
C           -1.79131706168632        0.99606818778400       -2.58175662059268
C           -0.32613456830351        0.94764762097534       -2.54552585533690
N            0.28686786969726        0.11716893988066       -1.67192114436910
C            1.55210299516628        0.45620182004113       -1.10261167759257
C            2.71542728718504       -0.22864499198400       -1.81964204808979
C            4.02716498145734       -0.08569364184579       -1.10611283522495
C            4.78579484620995        1.06442651007442       -1.22533014111821
C            5.98463518718943        1.20043106609723       -0.53076807933515
C            6.42948916852522        0.18849818668098        0.30326168472752
O            7.56735799363102        0.22658094979361        1.04719739602094
C            8.37197150404549        1.37324750964475        0.95808989493610
C            5.67441671241819       -0.99919618906217        0.41400076211065
O            6.18054691024283       -1.94436499215929        1.25595399369228
C            5.48821081396596       -3.15988854578449        1.38347395428988
C            4.49382927272708       -1.11907403585926       -0.29312560604469
C           -0.38514002467346       -1.04385720661612       -1.17307462213237
C           -2.64237402427253        3.11448996976395        0.58709863942826
C           -3.64640530386471        3.30921139062427        1.72762447268506
C           -1.18548710682004        3.49030141131665        0.97249860549521
H           -4.29813139569460        0.29794765995068       -1.79369009632822
H           -6.09604138152548       -0.64960025254225       -2.66439740515403
H           -6.06521292968694       -2.33328914867959       -3.21114956671602
H           -4.55486374827015       -1.40524117685244       -3.16566728523675
H           -5.37273276146690       -3.25575403195146        2.93186368097037
H           -5.33346552181180       -4.82658193641415        2.08814415865513
H           -3.83694740786109       -3.99974393677702        2.43918313691973
H           -3.74368266074598       -1.64793462750457        2.72708570989191
H           -2.90787944788316        0.59873318953246        2.21086463592036
H           -3.04510886717597        2.58531969816230       -1.96539993183213
H           -1.34755003188127        2.74388977088959       -1.46545392377181
H           -2.25061528607308        0.01609281197263       -2.43194464948553
H           -2.15282962923336        1.46902521492354       -3.50042139006639
H            0.10917693197296        0.63712141421197        2.97379780571488
H            0.19161842417504        1.84431562258068       -2.83522984313657
H            1.52001950923490        0.13827536598547       -0.06227176165705
H            1.68343167947555        1.52916866974199       -1.17203434058725
H            2.77690323444353        0.21784551525136       -2.81494991915127
H            2.43696793482770       -1.27759271382043       -1.89539807129996
H            4.44059338172145        1.87340113365465       -1.85174702210335
H            6.55508865530391        2.11069073554086       -0.64100638567947
H            7.84216034335867        2.26746796003686        1.30294402593671
H            8.72515742971376        1.53640962346758       -0.06533519809183
H            9.22154149307984        1.18461462716922        1.61040828920921
H            6.08496858111052       -3.77250406107943        2.05530316961563
H            4.49482464530329       -3.01906973998450        1.82328888440657
H            5.38437597573882       -3.66860863528321        0.41922127849501
H            3.90953564603939       -2.02290740941796       -0.21440670882989
H           -0.72162651875655       -1.63150591701370       -2.02633807070231
H           -1.24851385973188       -0.79444190064101       -0.53764598572948
H            0.30126567681239       -1.62372868738619       -0.57362460093435
H           -2.95467379489993        3.79766919343364       -0.21451501479869
H           -3.30953292105828        2.72417245717969        2.57848294847240
H           -4.63940688703081        2.94892958769204        1.43177326035407
H           -3.75374269176859        4.37757275888551        1.94113330085791
H           -0.79521483101935        2.72718831912572        1.63848000952379
H           -0.60001651142770        3.55011455352696        0.06411000052529
H           -1.11198950927013        4.51409661650917        1.44371361894065
H           -1.47495600362584        1.57730581634469        4.69637101308402
