72
 energy: 92.272078611335 xtb: 6.6.1 (8d0f1dd)
N           -1.70545387530670        1.74639919905978        3.12232879052062
C           -1.26702251916037        1.26861668190207        2.06103758290525
C           -2.46183060194247        1.66558525424286        0.32165902962728
C           -3.38373331946709        0.52597568698243        0.44606142979301
C           -4.08147615196181       -0.07548415630351       -0.59929025808591
C           -4.68934059397099       -1.30124643100136       -0.39196989275270
O           -5.43665031159780       -1.91913062938540       -1.34498894940181
C           -5.58262698597781       -1.28114203755699       -2.58197613624944
C           -4.60169900144604       -1.99445267909768        0.83504021074106
O           -5.13793245838821       -3.24719585489949        0.88586671604000
C           -4.98671441509837       -3.94385715557373        2.09413111084681
C           -4.01050896075418       -1.35983138871606        1.90572154415653
C           -3.46358544847334       -0.10779181095267        1.70384174884827
C           -1.71864389200602        1.84288564964120       -0.99354475053114
C           -1.78741913286267        1.05037877430095       -2.27701335373272
C           -0.31951550333537        0.94528867054266       -2.57075766727617
N            0.42810457128311       -0.03629562666725       -1.95496112794737
C            1.64385718049255        0.27184654456927       -1.20430270723941
C            2.85526270419451       -0.32345328773572       -1.92258363304422
C            4.14285472658280       -0.18560497583332       -1.12819862503750
C            4.89177705952034        0.97588059614576       -1.22419333760077
C            6.11216366649150        1.10829464862253       -0.55750652348474
C            6.59249703675795        0.08630139332698        0.24803067457974
O            7.76294279333256        0.11449490097330        0.94208540457246
C            8.54083777254523        1.27742141382051        0.82834235202898
C            5.84115135774332       -1.09648450931316        0.37259990862476
O            6.38390848488339       -2.05656853433330        1.18631804662885
C            5.67699683522901       -3.25878835708713        1.33494145136424
C            4.63623254115246       -1.21232683559298       -0.30181427545744
C           -0.26077239573423       -1.22745093382599       -1.52270988007316
C           -2.90054152831390        3.12004519514502        0.62858014171084
C           -3.91661326531214        3.26563113536099        1.73956648733137
C           -1.61007541208855        3.98359267144803        0.87489195142742
H           -4.19968970231113        0.44317314687674       -1.52985368561474
H           -6.10915152682019       -0.32268946731475       -2.54523190936270
H           -6.19351016314389       -1.96207023694826       -3.16250797973735
H           -4.61777252527630       -1.12220946312371       -3.07866025303139
H           -5.48067928445848       -3.41428431632990        2.91741343077024
H           -5.47420899234659       -4.90335468936631        1.94706175318937
H           -3.92343488018420       -4.11985938090050        2.31098293395946
H           -3.93441112606117       -1.84715899514639        2.86877110013856
H           -3.05358323776748        0.35394918608269        2.57886277926741
H           -1.84446324255800        2.83848736774039       -1.36610268719402
H           -0.67158897737440        1.76104779965810       -0.72593721852551
H           -2.30938633690709        0.11338373588854       -2.22692095112908
H           -2.30159012500843        1.71994066837090       -2.95973560112991
H           -0.36048596484528        0.63621088436623        2.05318885247951
H            0.21726887056537        1.88375256993886       -2.67721505918320
H            1.60260053666761       -0.12832283386867       -0.17864144407035
H            1.78468113945655        1.34145741778990       -1.10924511364640
H            2.93076986946261        0.15821988539250       -2.90303378916041
H            2.60564532851770       -1.36532797079058       -2.09286893211078
H            4.52540712009719        1.78699527111699       -1.84941268806050
H            6.67807675043434        2.02128005055251       -0.68183453940264
H            7.99745213775563        2.15961336577302        1.18744986181997
H            8.81907397225034        1.45886294770972       -0.21438541477247
H            9.42943203216049        1.10930858023474        1.42796718252422
H            6.28263549966593       -3.89591567440151        1.97532461506317
H            4.70323069050814       -3.11219096820091        1.81619703631871
H            5.52082006677888       -3.75069564572040        0.36704738322492
H            4.06799511959445       -2.12132026759242       -0.19046656511017
H           -0.73949475885059       -1.70813763874938       -2.38870049580317
H           -1.01761460947033       -1.00669287429241       -0.73619667861475
H            0.47319877062983       -1.88880520835758       -1.06145357467408
H           -3.35000328891392        3.40633879154470       -0.32804801500635
H           -3.41678126755690        2.91296036523334        2.63266372501269
H           -4.76225148861005        2.60747336810995        1.57023811609014
H           -4.26765796349618        4.29582723104044        1.82228319561377
H           -0.97154092714766        3.53113313604933        1.64667912843725
H           -1.08896614009781        4.11571587350219       -0.06424444186868
H           -1.78627967465405        4.99991383030312        1.21321087232915
H           -1.17233357629988        1.50969202124609        3.94711817976798
