72
 energy: 48.975713893537 xtb: 6.6.1 (8d0f1dd)
N           -1.51546542891820        2.19867042897232        2.80899678155405
C           -1.47677720399474        1.49995766941057        1.76523404829952
C           -2.46829218031725        1.73663463760541        0.55751098840364
C           -3.35938133152821        0.53469691002548        0.54269934197254
C           -4.11999016378037        0.04694689013999       -0.51384943586378
C           -4.75978563542677       -1.17463383064870       -0.41649487853225
O           -5.60571030274957       -1.72079133108393       -1.33882205837959
C           -5.90815478388073       -0.96471762810340       -2.47122408096657
C           -4.53982210204603       -1.98405654479873        0.70427016158623
O           -5.09957457364384       -3.22315752681527        0.68704637497961
C           -4.83832666801571       -4.01530602932799        1.80924335394991
C           -3.80837210299374       -1.47396420135826        1.74639323839840
C           -3.27096954429264       -0.21660960167669        1.68526783173867
C           -1.54953520569849        1.69277593950525       -0.65251520093631
C           -1.58495731398246        1.08933186009502       -2.01705738659667
C           -0.07916478650570        1.00137629685304       -2.03242615182398
N            0.54200768690133       -0.04313618640070       -1.37031212319452
C            1.82635731411467        0.08841217578693       -0.73499164519066
C            2.92229286691715       -0.44894725353501       -1.66468495541115
C            4.28046273067759       -0.32715844269935       -1.02191344564516
C            5.00921809412598        0.84223328518780       -1.15316021337976
C            6.26942609678987        0.97286492394988       -0.57061808731476
C            6.81817424720157       -0.06368095441265        0.17337985191255
O            8.04772116167897       -0.05375413282719        0.76382315226696
C            8.80786680899761        1.11714756503621        0.60326332075668
C            6.07794779923099       -1.24534120779525        0.33883079443261
O            6.68240975045198       -2.22482219656311        1.08553306182086
C            5.96848579771419       -3.41772450481168        1.25982034345979
C            4.82860272266934       -1.35885242953080       -0.24972192777779
C           -0.13963101602486       -1.29624946732772       -1.28255419773377
C           -3.35456465414648        3.06725603869670        0.61012101715057
C           -4.22114665103223        3.07097256960675        1.84487532624588
C           -2.39553181361790        4.23779964242736        0.71426739265273
H           -4.26513439432531        0.65695508304290       -1.38901441167775
H           -6.38561426914396       -0.01366529727322       -2.22159269831695
H           -6.61446731985755       -1.56179790727824       -3.04180004280726
H           -5.01532970603848       -0.72407194114910       -3.06246773505266
H           -5.20212007598495       -3.52535097883860        2.71673334341059
H           -5.38488498621542       -4.94358961560653        1.65945445045423
H           -3.76443984742496       -4.22852935179018        1.89143366026912
H           -3.54558369997146       -2.05881699345327        2.59030516492556
H           -2.68354650204829        0.16725897094677        2.49415720035095
H           -1.17988823076288        2.65362161502991       -0.90989226348053
H           -0.74053222805483        1.10838583330277       -0.31663532387581
H           -2.09472473020271        0.14564829303265       -2.00021992649422
H           -1.99246286230821        1.73222447761442       -2.78437825022778
H           -0.72487230510164        0.68830679713231        1.63192871818719
H            0.45576001748745        1.94219568436913       -1.98524075720282
H            1.87402003664369       -0.42858474311410        0.24381000116888
H            2.00090051327312        1.14308900456998       -0.55554947203430
H            2.86478450437564        0.12216688134671       -2.58927881960888
H            2.66871838113058       -1.47598438336785       -1.92502712093972
H            4.59136049900591        1.66282316733643       -1.72712766766388
H            6.81620769862703        1.89411957740570       -0.71745248813039
H            8.27416759214407        1.98903469999092        1.00357051456146
H            8.97790430825406        1.31952586228528       -0.46107464202259
H            9.75482211236522        0.95718045745101        1.10969304686676
H            6.60816358358574       -4.08110312377951        1.84014216856844
H            5.02930728518028       -3.27041866196750        1.80690363613028
H            5.74039451068605       -3.88577644278784        0.29127800483628
H            4.25545609542983       -2.25719598430212       -0.11721469169401
H           -0.56226178807673       -1.65784982572416       -2.21923701730762
H           -0.97444435360446       -1.20349614301420       -0.59423816406373
H            0.57196865012178       -2.03706284354737       -0.96684745262725
H           -3.97824047353873        3.15229052428782       -0.29384589266632
H           -3.49942447082746        3.00863319042106        2.67053729956870
H           -4.85482671103305        2.20381900748728        1.78944221890378
H           -4.84283140335809        3.96403284189812        1.94556510958878
H           -1.64064709915422        4.02342217791302        1.47439688380562
H           -1.93505810147239        4.41662784683135       -0.24692920701159
H           -2.85188677535567        5.16207083813630        1.01352208461819
H           -0.82101253504181        2.01958133301148        3.52218411212103
