72
 energy: 56.289846792890 xtb: 6.6.1 (8d0f1dd)
N           -1.52186012167053        2.42189406815032        2.65947447080755
C           -1.51120249370958        1.67910972359641        1.64685929705500
C           -2.57424564354230        1.79449794531937        0.52577515628855
C           -3.37326453940459        0.54937591308683        0.52435409684107
C           -4.18532065170553        0.11600096019147       -0.52108109896911
C           -4.79493789797127       -1.12035716966713       -0.45237455472801
O           -5.68138431255252       -1.64848751303407       -1.34729087834179
C           -6.06163419753771       -0.84561707605034       -2.42114933195331
C           -4.49497925861590       -1.97602944695652        0.61579283039552
O           -5.06694128568811       -3.20988501824179        0.58143240673665
C           -4.76898894072302       -4.03976075340757        1.66789746987851
C           -3.68271761798012       -1.51621880757744        1.62297521058326
C           -3.15102236024118       -0.25638453820454        1.59168752986973
C           -1.78158019060213        1.86218767688817       -0.74608748442268
C           -1.45348484290597        1.03578614461288       -1.94061022954096
C            0.02151371872229        0.99440633376782       -1.69357322956737
N            0.57081983167205       -0.05051468428462       -0.99343124644111
C            1.90825185371734        0.02319310579025       -0.50333784955683
C            2.93495015875393       -0.49498766677109       -1.52728497486002
C            4.32287835029287       -0.37691613564848       -0.96734285795693
C            5.04639778458949        0.79409306570464       -1.11839180385139
C            6.32216786380641        0.92184427275260       -0.57693385811185
C            6.89771066876630       -0.12019028525675        0.14008110027533
O            8.14903400909399       -0.11672019446249        0.68769367392453
C            8.90916560253856        1.05146487727962        0.50856241721181
C            6.16153559340231       -1.30258416933660        0.32336159100351
O            6.79163964762639       -2.28768124526215        1.04071797251822
C            6.08668412813666       -3.48305666615893        1.22651368837295
C            4.89444381284779       -1.41359997616718       -0.22341669150324
C           -0.10134421270503       -1.31261904752852       -1.02315794336254
C           -3.56576435763665        3.05172113461714        0.60390930554874
C           -4.34747639232689        2.97745553721449        1.88947335656968
C           -2.75489837327437        4.31764313518087        0.65850842122328
H           -4.36639560238483        0.76147305319814       -1.36375666549856
H           -6.51952474655621        0.08829605810047       -2.08063367983561
H           -6.80053514116427       -1.41774623224321       -2.97881597014902
H           -5.20934631680125       -0.56578478115143       -3.05456986735416
H           -5.07135123935871       -3.57199510627495        2.60960903973489
H           -5.34107764595021       -4.95428374693738        1.52179261426787
H           -3.69753422954600       -4.27192459270191        1.70060999035451
H           -3.34832528803701       -2.13109323089469        2.41696719600755
H           -2.47278585921692        0.11313457253699        2.33538523382471
H           -1.83595656254511        2.77953250544517       -1.21106538413312
H           -0.81307733657900        1.76799377287871       -0.42227453359622
H           -1.97515488136687        0.10931903075172       -1.90477960706520
H           -1.69539117622105        1.59459096885923       -2.82776188641219
H           -0.70130542172645        0.96453412749637        1.42381988750773
H            0.54609869947715        1.94334030332671       -1.66411912752202
H            1.99683544048126       -0.53117877798663        0.44709032082791
H            2.10473857424807        1.07426967527479       -0.31195604877313
H            2.82248112223880        0.10468208103719       -2.42702232265628
H            2.67926770513293       -1.52048338052843       -1.79616386237578
H            4.61038481416105        1.61799755626721       -1.67067305080053
H            6.86296286787544        1.84465698232038       -0.73353748729629
H            8.39389428311913        1.92282510543048        0.93181407252536
H            9.04610468580575        1.26079904427732       -0.55940149324119
H            9.87357083444168        0.88379892070022        0.98226991736052
H            6.74745994655610       -4.14835613216160        1.78167977542923
H            5.16355852739277       -3.34111047564449        1.80273564027247
H            5.83191174786090       -3.94620490637312        0.26216067869314
H            4.31959687807356       -2.30942585081006       -0.08292663886726
H           -0.42547648981140       -1.64812334755946       -2.01072302114047
H           -0.99559623703290       -1.23436250585132       -0.41362003821942
H            0.57039522526662       -2.06201807684426       -0.64356768438052
H           -4.25151795607399        3.08377566405525       -0.26155267932835
H           -3.58492477515221        2.97494042409844        2.67849424096699
H           -4.88982982684868        2.05034071318617        1.85877842255842
H           -5.04707643333636        3.80797886940587        2.01934284499729
H           -1.97021061110080        4.19558910837924        1.39902638330736
H           -2.30408189464623        4.52208723635122       -0.30408067454152
H           -3.31770283999732        5.18278397432349        0.95968166599034
H           -0.75667198006518        2.32982616129019        3.31571601291054
