72
 energy: 4.702276634343 xtb: 6.6.1 (8d0f1dd)
N           -1.52471063979709        2.71999930407220        2.38257179685689
C           -1.54790125261105        2.01291738591781        1.34107626420483
C           -2.70465665952218        1.97206328747567        0.36404645281063
C           -3.35075148753626        0.62101395593317        0.40429671531755
C           -4.28036774788617        0.21548180676059       -0.55217596174870
C           -4.83505308256953       -1.04817886997344       -0.50624824923216
O           -5.77804611636062       -1.54781550694854       -1.35976587606777
C           -6.27976822326567       -0.69156987886008       -2.34467234596698
C           -4.42516209711896       -1.95193272076047        0.48993100841693
O           -5.01298516107079       -3.18213884050710        0.45025654514871
C           -4.68610798123041       -4.07216890180794        1.48395379042471
C           -3.50203160037622       -1.53131325861892        1.42302403425936
C           -2.97307258503016       -0.25626739051555        1.38196409481979
C           -2.11415995980881        2.14460832137756       -1.03530889373934
C           -1.29339312371132        1.10273608693078       -1.73729692011888
C            0.01941857929135        1.09155645132212       -1.06886432427482
N            0.62716803971439       -0.06057754593722       -0.63497473657176
C            1.99246691659850       -0.03563920601143       -0.23743759212869
C            2.94211665843828       -0.53802911768019       -1.34716634865612
C            4.36133586543347       -0.42595243071630       -0.88481102949972
C            5.07839388735007        0.74217570218679       -1.06956454317843
C            6.37700567746464        0.86265616547495       -0.58991833922408
C            6.97998721987865       -0.18509981893668        0.08976225483438
O            8.25360638095061       -0.18813298791300        0.58271352652902
C            9.02733991715381        0.96752334916964        0.38291742883803
C            6.25068573235133       -1.37221581095799        0.29855283201294
O            6.91500722712578       -2.35875690828167        0.97326358007722
C            6.24037849767185       -3.57035445533716        1.18001925402313
C            4.95940124040079       -1.47479153198422       -0.18594681969065
C           -0.05754190108234       -1.31561297769141       -0.69937157953293
C           -3.80852964449356        3.06477696588578        0.58999102192427
C           -4.47598922712462        2.84831606205711        1.93177950352574
C           -3.21459366969971        4.44779690186649        0.58687618010993
H           -4.55500609661154        0.89349530240434       -1.34014140450848
H           -6.72496818357408        0.20410124275234       -1.89557372915002
H           -7.05035920569994       -1.25387920838532       -2.86996030167970
H           -5.49948113650403       -0.36552901688054       -3.04487270968691
H           -4.92062487233582       -3.64958929325843        2.46636703568403
H           -5.29568719401396       -4.96133351176048        1.32180585251515
H           -3.62506595719223       -4.34309916806313        1.45756066392745
H           -3.12430205273386       -2.18600811290581        2.17769855625959
H           -2.22199050774782        0.06461281753510        2.08534321993068
H           -2.87353602154009        2.47886902714330       -1.68878046570947
H           -1.38672461139181        2.88921857919807       -0.95557909137524
H           -1.82067748871413        0.16622701550733       -1.71887876073857
H           -1.20666112157817        1.44094610395622       -2.77236846047399
H           -0.68349614810958        1.46093273482617        0.94936545961723
H            0.63784778949169        1.97056343130414       -1.17673242426319
H            2.11633784292126       -0.64148837017530        0.67216874537373
H            2.23746177891171        0.99996891381716       -0.01070121943422
H            2.77560907818858        0.07956463379073       -2.22705014770587
H            2.68528044834812       -1.56695567603314       -1.60492593855351
H            4.62497560685153        1.57088206586681       -1.59565073643770
H            6.91223316300865        1.78402856196043       -0.76372032596181
H            8.55898964465933        1.84316849860035        0.84769642989933
H            9.14429364360332        1.18151980708335       -0.68692165047029
H           10.00163972196466        0.76929951398985        0.82561600636806
H            6.94364284432486       -4.22015423943690        1.70023349136931
H            5.34391022548591       -3.44482404110694        1.79867118312487
H            5.95537719024576       -4.03655246290319        0.22720797171976
H            4.38675507009226       -2.37241215692444       -0.03396795560484
H           -0.26484851846492       -1.64153639209209       -1.72717212960324
H           -1.00762863654960       -1.24452470055407       -0.17022466420638
H            0.56078489911602       -2.06691502599729       -0.22111348460879
H           -4.56263013782373        3.00749031875210       -0.21041321218465
H           -3.70766718436773        2.91860309136372        2.70263033888829
H           -4.90068618570490        1.85697584821995        1.93515267820812
H           -5.26258579192051        3.58470014791820        2.10835420485397
H           -2.41135699549248        4.47608123006592        1.31131884881438
H           -2.79825297687142        4.68913239997428       -0.38681785359175
H           -3.93354644156873        5.19706323138210        0.87453261191708
H           -0.67952074127365        2.69060489667985        2.94691786293932
