72
 energy: 114.520086056590 xtb: 6.6.1 (8d0f1dd)
N           -1.70477477030654        1.51661143724172        3.60075794064729
C           -0.95171992399214        1.04795313346680        2.74635740023640
C           -2.71640284993085        1.76326538682757       -0.13936549465107
C           -3.39312659816253        0.57249243490985        0.18576038869559
C           -4.08537635589631       -0.15262574642020       -0.80180050068736
C           -4.64521636079409       -1.36898693503001       -0.49918539321917
O           -5.36416757643568       -2.08527822094252       -1.39428116900635
C           -5.47914364421152       -1.52322569545270       -2.66332631148529
C           -4.49730920283339       -1.99248720079274        0.75880406021907
O           -4.99744106386096       -3.26460438914421        0.88150549070359
C           -4.91994984806280       -3.87551738912243        2.14348569746857
C           -3.89886293026416       -1.25637946861652        1.76800395190296
C           -3.41016495175584        0.00940504898915        1.48450569831158
C           -2.08433630599491        2.01278547088158       -1.45610537965239
C           -1.79394575476507        0.98396147652201       -2.53949658928464
C           -0.32972193185879        0.90490154718108       -2.61427824637012
N            0.31251299681969        0.06983785187628       -1.76991708432187
C            1.56072653509800        0.42275205996428       -1.17681595408793
C            2.74551298715884       -0.25072349779860       -1.86173317333390
C            4.04764498360783       -0.10034955737057       -1.12551305239411
C            4.80418349781665        1.05293721951715       -1.23567217111215
C            6.00427613406984        1.18814482086659       -0.53914967999243
C            6.45126522800489        0.17572232380926        0.29406154155731
O            7.59064132101662        0.21347139483093        1.03510944361749
C            8.39080506929968        1.36290071921785        0.94445170098598
C            5.69705840785313       -1.01160261930950        0.40493944768289
O            6.20630840468461       -1.95808827578798        1.24575336561557
C            5.51193430259593       -3.17178323776203        1.37698169860106
C            4.51472592850038       -1.13000178157799       -0.30073610941100
C           -0.36929861317633       -1.08431043412205       -1.24978656229389
C           -2.67027160205435        3.12340695919145        0.60394115864338
C           -3.69277280406524        3.32505143386056        1.72586586532175
C           -1.22947528943078        3.56945063202450        0.95594531246680
H           -4.27766295594857        0.32920789340665       -1.74331997552427
H           -6.03434088348717       -0.58027162224648       -2.67616289534800
H           -6.03450301633507       -2.26301843186020       -3.21889506038795
H           -4.49255452961471       -1.37241413954556       -3.11485530297060
H           -5.42287626952156       -3.30516895837162        2.93085863281133
H           -5.37417905287610       -4.85703868855437        2.04885062669962
H           -3.89412930871700       -4.03451066753073        2.44528935482414
H           -3.81046794369443       -1.68419492948621        2.76756963576701
H           -2.96638026075964        0.56121957438316        2.28071098591687
H           -2.83172376730625        2.63592566640437       -1.85444318886289
H           -1.12759583090583        2.60815567609429       -1.32146651124408
H           -2.28034667104770        0.02325821393800       -2.39571826688363
H           -2.18544847753092        1.50132573514944       -3.41115216037693
H            0.05669620935046        0.63312489655059        2.80497141494634
H            0.17592304173539        1.81449623266682       -2.89814806643549
H            1.50555232983467        0.10420076777466       -0.13810699062549
H            1.69228432443964        1.49386580578304       -1.25125567400741
H            2.82526864147758        0.19557628588585       -2.85320458533663
H            2.47381728123407       -1.30028378853535       -1.93821598124016
H            4.46098343840228        1.85992898945057       -1.87035934042418
H            6.57559138593127        2.09822366913305       -0.65057791052821
H            7.85825037734916        2.25535480119222        1.28993146221970
H            8.73577018381334        1.52849024960861       -0.08106762363310
H            9.24353131241730        1.17753434686402        1.59260590191124
H            6.10843279706010       -3.78713937980654        2.04614568164656
H            4.52102622914704       -3.03019809934748        1.82212174021607
H            5.40099260292201       -3.67883512153611        0.41252059625360
H            3.93516502137966       -2.03658095287733       -0.21443365217516
H           -0.74095828401823       -1.66070867933745       -2.09690982927357
H           -1.20910830942852       -0.82649386140348       -0.58696592862149
H            0.32542547250970       -1.67315872679998       -0.67394729190481
H           -3.02468603789315        3.73915106882134       -0.22964867234764
H           -3.33923599696326        2.77109846164539        2.59314758734488
H           -4.66515823791154        2.89632464033045        1.44090410515627
H           -3.84650326351083        4.40198060274093        1.89970626105814
H           -0.82212833906245        2.83792043463559        1.62392938031496
H           -0.63748494081056        3.68635028709395        0.06049921214472
H           -1.14526629815486        4.54759295422742        1.40532660168440
H           -1.43215895164021        1.57123781005095        4.56718738008960
