72
 energy: 120.590278685233 xtb: 6.6.1 (8d0f1dd)
N           -1.71270648694347        1.55900043001065        3.48710013601078
C           -0.99730583478120        1.09203876695251        2.59649017748095
C           -2.67401648578510        1.72637875732185       -0.07291429065752
C           -3.38429894999623        0.55174979060711        0.24291233537008
C           -4.07929424023818       -0.14479046018061       -0.75758462643028
C           -4.65354324514430       -1.35959985360013       -0.47258221262521
O           -5.38283248166482       -2.04562165668980       -1.38354834018232
C           -5.48921046110548       -1.46629655498768       -2.64724719368474
C           -4.52718212148913       -1.99958803834641        0.77876504887413
O           -5.03934287181350       -3.26521031439455        0.88745512005803
C           -4.95974621694996       -3.89554291611697        2.13939428541744
C           -3.94048752748688       -1.28402947824200        1.80806658727266
C           -3.44518834026839       -0.02025452414557        1.53716379179055
C           -2.00445325302589        1.97506703106698       -1.36877797843583
C           -1.81702807409998        1.00112941937227       -2.50323893552416
C           -0.34938662481510        0.91041967006029       -2.64651311623250
N            0.33255893120738        0.03720959785892       -1.86836385808913
C            1.57385947948871        0.38920902316160       -1.24423375337102
C            2.77778758999470       -0.26848364444665       -1.90241561478350
C            4.06791749927714       -0.11619041608247       -1.13517967364063
C            4.82374822669287        1.03902818419183       -1.24007468894960
C            6.02712047149766        1.17277138049955       -0.54587187031310
C            6.47913673997188        0.15881620786742        0.28387776586186
O            7.62302250288790        0.19497375095634        1.01769249367414
C            8.41831878660111        1.34757636449531        0.92379689633352
C            5.72542923617561       -1.02774398709860        0.39615909746157
O            6.24053831700066       -1.97663674327500        1.23291793647417
C            5.54362085662136       -3.18806214598767        1.36856658866591
C            4.53914333503751       -1.14468294724653       -0.30534017320242
C           -0.34820533358015       -1.11486751645783       -1.33071618843991
C           -2.71338082719957        3.11347507599897        0.60496263238578
C           -3.74514653937432        3.32334148748059        1.71440784879485
C           -1.29970179325367        3.67007371741163        0.94653692526796
H           -4.25717862530736        0.35538913630912       -1.69198749784174
H           -6.03604981375405       -0.51810960173850       -2.66228825627659
H           -6.05361418786232       -2.19334606509075       -3.21196168561959
H           -4.50289816887292       -1.32054395093040       -3.10294057188245
H           -5.47014645401974       -3.34012827822344        2.93289972928231
H           -5.41975128029645       -4.87210357140940        2.02375691942560
H           -3.92435633689146       -4.05810964540580        2.43428674975670
H           -3.87897888800533       -1.72127387428267        2.80671829909602
H           -3.01509391504115        0.51590475854312        2.35119811687329
H           -2.60067898182704        2.74777633564118       -1.76260280174148
H           -1.00878092847053        2.43147717669964       -1.18039116335313
H           -2.31071577737187        0.05036516405284       -2.37523878883428
H           -2.24559775379244        1.55626059221923       -3.32745357095228
H           -0.00884931678952        0.63277714884094        2.63204229732569
H            0.16671547844422        1.82982561651152       -2.88809207813346
H            1.50946240183302        0.05042709246669       -0.21363725234776
H            1.70828490413574        1.46170089910950       -1.25810872185165
H            2.87466061501254        0.17810290204720       -2.89097515668261
H            2.50812615748635       -1.31687214011331       -1.98553832779209
H            4.47970593855773        1.84412778019375       -1.88260809930943
H            6.59881104368810        2.08274498732873       -0.65942713543829
H            7.88278325921176        2.23779652351130        1.27104987072827
H            8.75110917542401        1.51636225488955       -0.10495571510793
H            9.27703448182629        1.16609428618018        1.56414485253596
H            6.14093323454349       -3.80752778302967        2.03305965955930
H            4.55600558936661       -3.04541551892294        1.82074725845376
H            5.42365133166077       -3.69248460680905        0.40354886532518
H            3.96445240794825       -2.05367489749334       -0.21213679356671
H           -0.75561945941370       -1.68261999693978       -2.16871706243532
H           -1.16068733241969       -0.85381992712427       -0.63373310923202
H            0.35766165683086       -1.71733611682270       -0.77792240325890
H           -3.08654400533937        3.66061378712133       -0.26451151011664
H           -3.36693922495324        2.81357958343834        2.59799105127494
H           -4.69310459149967        2.83209442601583        1.46343203486370
H           -3.94497333800593        4.39912494177677        1.84530258014579
H           -0.81613042850359        3.01122115081291        1.64415945837854
H           -0.72372812978437        3.82614225841217        0.04338928785557
H           -1.32103669818196        4.65132372454656        1.36349155225487
H           -1.38225572804944        1.54597121033300        4.43541666350030
