72
 energy: 54.465256427311 xtb: 6.6.1 (8d0f1dd)
N           -1.51782098585983        2.30915114633224        2.74296136165646
C           -1.49476479925624        1.58174237473322        1.72073957172005
C           -2.51595477417199        1.75954354682982        0.55392762540126
C           -3.36417416588222        0.53842959231783        0.54084966465365
C           -4.14893931686205        0.08072076418295       -0.51489175513297
C           -4.77736339717045       -1.14685921924378       -0.43337348221464
O           -5.64376571030245       -1.68365171372356       -1.34216910963953
C           -5.98459161456049       -0.90369470740691       -2.44643383721028
C           -4.51827745870481       -1.98083920005968        0.66124426517535
O           -5.08433925400371       -3.21707751264479        0.63407285432470
C           -4.80324801764021       -4.02814322576828        1.73839376714324
C           -3.74696623089734       -1.49810129525780        1.68801029508807
C           -3.21255444542321       -0.24021578210539        1.64595864179579
C           -1.64760816018970        1.76609603671751       -0.68107459604005
C           -1.52417279608358        1.06408372699683       -1.98874387789750
C           -0.02306404666213        0.99609226174775       -1.88535432035916
N            0.55420538156712       -0.04447374845468       -1.18129176679776
C            1.86688017488378        0.05560390791528       -0.61857369735920
C            2.92910442245778       -0.47270368046831       -1.59605016608977
C            4.30285039685233       -0.35310921080380       -0.99479711764653
C            5.02885544226787        0.81722668105368       -1.13589583018229
C            6.29699735758223        0.94643235702093       -0.57366402244916
C            6.85967791439083       -0.09279686660710        0.15670904602947
O            8.10040877166284       -0.08623895304465        0.72540960340996
C            8.85988670036388        1.08380385310199        0.55529983531394
C            6.12143174089523       -1.27492352948529        0.33123273257648
O            6.73877693095030       -2.25714155799990        1.06316652744328
C            6.02846439096675       -3.45091374548705        1.24314136767319
C            4.86289926441170       -1.38688057934887       -0.23671786009533
C           -0.12052187818492       -1.30418566804471       -1.15562526584092
C           -3.46038861549529        3.05704408027821        0.60751065552757
C           -4.28555844900674        3.02365277037073        1.86817392136183
C           -2.57616872016522        4.27829784038144        0.68563358756072
H           -4.31080545124057        0.70923832203113       -1.37455274393667
H           -6.45168193440396        0.03970011397869       -2.14999267771337
H           -6.70798167973910       -1.48707160636931       -3.01128657994285
H           -5.11100785722999       -0.64357008682325       -3.05822179413274
H           -5.13546319228663       -3.54865256111379        2.66365231863101
H           -5.36267042237233       -4.94962997195494        1.59109034603506
H           -3.73012445110003       -4.25031108166522        1.79489904041308
H           -3.44528185139733       -2.09882721451629        2.50545404556691
H           -2.57718941758515        0.13723836764257        2.42088755801763
H           -1.42775363440456        2.72922800696392       -1.02377030667933
H           -0.76038494161630        1.36163289727285       -0.33677504148125
H           -2.03520855972273        0.12683178150765       -1.95670870723966
H           -1.86012498372085        1.67072661596414       -2.81194336081575
H           -0.71520940701857        0.81246027276128        1.54666682467024
H            0.49911051183515        1.94525878730942       -1.82441607046264
H            1.93561588732198       -0.48134146545969        0.34646733080057
H            2.05292587739284        1.10838348985871       -0.43190373921455
H            2.84357732007730        0.11352924901683       -2.50797931437299
H            2.67444604311357       -1.49872874039631       -1.86207704687890
H            4.60149948607513        1.63941891036658       -1.69883657531527
H            6.84063392862548        1.86872880231246       -0.72525949296701
H            8.33445732374266        1.95509792444102        0.96672448325515
H            9.01204935014906        1.28987911464020       -0.51111708104020
H            9.81646139836865        0.92091982369432        1.04455375807331
H            6.67819300791376       -4.11602894775683        1.81082151606219
H            5.09722538147300       -3.30562851266406        1.80480072313179
H            5.78664657001484       -3.91586802305572        0.27632760331643
H            4.28878156124214       -2.28382544292670       -0.10004453085685
H           -0.49477765956336       -1.65155321373985       -2.11890113422998
H           -0.98613390978585       -1.22087245373206       -0.50632604493079
H            0.57233936439482       -2.04991266352176       -0.81112629801065
H           -4.11574080676243        3.11410064473707       -0.27868313088594
H           -3.53984368031905        2.99329242207281        2.67454195015825
H           -4.87342491719211        2.12480694497834        1.82574301151896
H           -4.94808406919853        3.88594645690954        1.98168299734406
H           -1.80437731973534        4.11132714223110        1.43561229520746
H           -2.12142694152640        4.46963235244329       -0.27690376174745
H           -3.08761444016499        5.17385021178208        0.98541454801116
H           -0.78710348920556        2.17520912450072        3.42866012716048
