72
 energy: 71.419436162766 xtb: 6.6.1 (8d0f1dd)
N           -1.57865792494047        1.42981476631812        4.19274330823444
C           -0.71869735544031        0.97981287747624        3.44702391325169
C           -2.94209513512621        1.92911027222382       -0.50027778321523
C           -3.44166176962808        0.67151338501443       -0.09273579222969
C           -4.15383002347333       -0.16679389870393       -0.99517341165893
C           -4.61970002852713       -1.40716641496268       -0.63077711604204
O           -5.33072060115068       -2.25583328511447       -1.44135315564318
C           -5.68574514871775       -1.82152486211987       -2.72445081025532
C           -4.38187690614932       -1.89950081585803        0.67290809601345
O           -4.86866675795355       -3.15295364902979        0.92943714889570
C           -4.71254200225850       -3.67716749963482        2.21964374820263
C           -3.69198425636114       -1.09848356781561        1.56631975722565
C           -3.23336756321019        0.15069015772981        1.19689007579643
C           -2.69512689739019        2.17749905313471       -1.91131594399628
C           -1.71368338511978        1.14173689012313       -2.67507040904616
C           -0.35248475522497        1.22601958882746       -2.21108018205739
N            0.20028906741071        0.37846385771663       -1.32323040412202
C            1.53532102844320        0.59731640659626       -0.83804378145053
C            2.58992497503850       -0.14701126112740       -1.68305106338576
C            3.94134853273776       -0.05057768264561       -1.03288670825703
C            4.71069857156640        1.09127022877165       -1.15602239516975
C            5.93541756781133        1.20026872568455       -0.50599465085601
C            6.40772405779499        0.16683980673154        0.28470818290675
O            7.58731148597943        0.16359428176682        0.96398367698068
C            8.42394581465947        1.28723584774813        0.85798967499979
C            5.63095054086781       -1.00664902289493        0.41692691095852
O            6.17235611156033       -1.97876636042815        1.20374805002362
C            5.48199936031993       -3.19660437298254        1.33601436714757
C            4.41909697199014       -1.09748508059981       -0.24499934755515
C           -0.43646709722042       -0.86314688069620       -0.97263924729845
C           -2.52192872880105        3.04259095590024        0.42311016393102
C           -3.47824806464639        3.25422952161273        1.59678011940651
C           -1.07060227097861        2.94678629353584        0.89472953831809
H           -4.39828861126868        0.21103180020045       -1.97431877947991
H           -6.30118515425571       -0.91585992191841       -2.69574264020823
H           -6.26963880623229       -2.63365720681050       -3.15380653972389
H           -4.80562258335351       -1.64125108645045       -3.35298823016148
H           -5.19812478046327       -3.05040992652519        2.97465577931953
H           -5.19735010198384       -4.65130681658815        2.19925342459938
H           -3.65871179169586       -3.81322330775408        2.48371616469959
H           -3.50351159763104       -1.44464010935830        2.57141790700960
H           -2.67023775365675        0.71828795018492        1.91242261578547
H           -3.60665391545514        2.09744562791010       -2.48589119887149
H           -2.25123507515998        3.16008522890386       -2.05084391967671
H           -2.14370390969423        0.15354137107016       -2.56110279007694
H           -1.77822151379781        1.43806616694215       -3.72310805874006
H            0.30201388135521        0.63799554471900        3.64779964365772
H            0.21386492939485        2.11328603487260       -2.43148543248213
H            1.59382323850211        0.24279420180580        0.19261081498915
H            1.76182047350565        1.66508559064046       -0.84683623319368
H            2.61508352116045        0.29121067869083       -2.68326814890299
H            2.28833761229570       -1.19132615469372       -1.77174312560058
H            4.36058157624147        1.91087780455015       -1.76691725411457
H            6.51143778402555        2.10471351719648       -0.62478895864744
H            7.93932453463282        2.19116743872040        1.24371256347151
H            8.74014191411346        1.45827535254694       -0.17671212135790
H            9.29694492142175        1.05788537962538        1.46686961269293
H            6.11513528347590       -3.82106916044935        1.96763814541300
H            4.50204137088687       -3.06398880426932        1.81684593367881
H            5.35126363185790       -3.68771704121987        0.36413892241800
H            3.82210299970774       -1.99186375738914       -0.15672197271178
H           -0.64213496479515       -1.45810039922145       -1.86562294485645
H           -1.37867230308906       -0.69410541117970       -0.44355110854170
H            0.22575824681224       -1.43073814586574       -0.32528076762840
H           -2.57036053961952        3.96099194778262       -0.18472117215600
H           -3.23500830388606        2.61623882228987        2.43666640939431
H           -4.50209641007573        3.05745922603686        1.28793156635594
H           -3.41182365579580        4.28688714006000        1.92724471142260
H           -0.89679149822670        2.09401430786809        1.54130220863173
H           -0.40368915361277        2.93343972763422        0.04088481041928
H           -0.82335522371113        3.83877430008577        1.47294168117140
H           -1.54879702734228        1.59346986215206        5.20470368792220
