72
 energy: 90.817830936100 xtb: 6.6.1 (8d0f1dd)
N           -1.65877729260609        1.46421753978780        3.82783528064894
C           -0.84837553004021        1.02005118978881        3.02302471185202
C           -2.76798137748648        1.81675273397818       -0.27386085801348
C           -3.40867436692993        0.61124151889825        0.07113484457294
C           -4.10750176504675       -0.16448802191220       -0.88463432388060
C           -4.62441313294534       -1.39117848402955       -0.55147729550460
O           -5.33589266366576       -2.16282657218893       -1.41133589747895
C           -5.56263948151823       -1.63337516157255       -2.68586230903766
C           -4.44102790769159       -1.96377300396863        0.72466246850619
O           -4.93040994961921       -3.23563429992717        0.89826189116769
C           -4.82725728041570       -3.81013977555058        2.17655337096167
C           -3.81177554205077       -1.19614839799077        1.68963968971684
C           -3.33815084648126        0.06686754566190        1.37498274224945
C           -2.34014403198015        2.09947093963678       -1.65835123348947
C           -1.76593383991262        1.01186583767589       -2.61693439489126
C           -0.30811686735280        1.00795671175083       -2.46755149724925
N            0.26894146810586        0.17930888309357       -1.57088995406580
C            1.55082842124254        0.49609254463952       -1.02759732035478
C            2.68316380291487       -0.20270882016435       -1.78169678156955
C            4.00582037684315       -0.07132381496941       -1.08807223389669
C            4.76607096830882        1.07640111157849       -1.20608409306658
C            5.96730313397597        1.20994099597515       -0.51993714702074
C            6.41363698542748        0.19698649128857        0.31093108842366
O            7.55366672334596        0.23330253249455        1.05286454313410
C            8.36243087222532        1.37766149408704        0.96388449816272
C            5.65595460164734       -0.99000595900542        0.42135489589246
O            6.16238876290751       -1.93527655373614        1.26186242154644
C            5.47280310990466       -3.15267571139716        1.38732490063762
C            4.47535256879109       -1.10963665408121       -0.28658041195436
C           -0.39712277118161       -0.99862153022880       -1.09673137666043
C           -2.59585955876502        3.07845669424527        0.56155391225615
C           -3.59004893954481        3.28949220362057        1.71105533658629
C           -1.12405128919166        3.34467391852391        0.96533476849108
H           -4.31944582464753        0.27038612294612       -1.84479021455349
H           -6.16013072293927       -0.71156923100928       -2.67268776443684
H           -6.12168902534709       -2.40556057763300       -3.19304550775964
H           -4.62304511444710       -1.45209001548578       -3.22274905008707
H           -5.32733484484397       -3.20574215366918        2.93955031042162
H           -5.29542934660180       -4.79095261222997        2.12553550356485
H           -3.78640469658311       -3.96034415497960        2.44723495422719
H           -3.68429974283425       -1.60028284325875        2.68921873261375
H           -2.84353466864469        0.63119412380794        2.13873820031863
H           -3.20524856067053        2.55335446640709       -2.11397531806994
H           -1.56272286130939        2.87152202258650       -1.60193808226974
H           -2.22012935565676        0.03192338896481       -2.46670579804970
H           -2.06869300939963        1.42848507365837       -3.57553854419758
H            0.16865585925492        0.63265200216184        3.14277809609273
H            0.19085557645155        1.92506404584217       -2.74991469756865
H            1.54928458461441        0.17165075607493        0.01170761900323
H            1.69018800940243        1.57097249956463       -1.09041897264692
H            2.73059446960662        0.23986729467222       -2.77849632278688
H            2.39483154976769       -1.24905704867424       -1.85994007306336
H            4.42013797453480        1.88641579795520       -1.82962779793898
H            6.53691824253813        2.12006472436613       -0.63037149333518
H            7.83501719221941        2.27312893359312        1.30942002113870
H            8.71941942047444        1.53955394159183       -0.05877307677114
H            9.21227176790950        1.18642402970239        1.61611002151279
H            6.07147800996764       -3.76381157045270        2.05967574344183
H            4.47793661258384       -3.01261320799266        1.82407502455739
H            5.37401985293453       -3.66243750734102        0.42307265716561
H            3.88730379399371       -2.01120457389406       -0.21384928705224
H           -0.70191033172662       -1.59997926534941       -1.95421494912558
H           -1.28565242161664       -0.76255187422309       -0.49060300622285
H            0.29016759281063       -1.56657292195333       -0.47640443342130
H           -2.85646436474653        3.83577469735080       -0.19231078547519
H           -3.28262357355482        2.68232910801172        2.55272098075116
H           -4.60102432315253        2.99729285430822        1.41459537653727
H           -3.65220401845664        4.35114898980216        1.96732570182384
H           -0.75204098154540        2.58125653490586        1.65824275737707
H           -0.51677886336187        3.39814746898053        0.06667788642918
H           -1.02478120636062        4.35392623666769        1.45615976407379
H           -1.51571940709190        1.59361144815594        4.82058448164648
