  25
        -42.12614036
 C          3.2274111209        1.0708020455        0.1196918815
 N          2.3996773934       -0.0980254158        0.0072374150
 C          2.7935450295       -1.3486739457       -0.2167135272
 N          1.7266958608       -2.1911005053       -0.2177176421
 C          0.6235823067       -1.4411588131        0.0152395366
 C          1.0368678711       -0.1154103821        0.1603606172
 C         -0.1216052792        0.7154358473        0.3742060940
 O         -0.2397280652        1.9196235702        0.5126363220
 N         -2.4701146328        2.9129337906       -1.4944349343
 C         -2.6028230719        2.9638112017       -0.2628911227
 C         -1.2646219846       -0.3095080964        0.3704344951
 O         -2.4389622689       -0.1080538075        0.5297441971
 N         -0.7115609047       -1.5896669766        0.1409507067
 C         -1.4987654298       -2.7921942537        0.0192859290
 H          3.5851168728        1.1833952543        1.1454421643
 H          4.0843130189        0.9962033234       -0.5472913920
 H          2.6339533941        1.9479183695       -0.1340455531
 H          3.8071357160       -1.6598944731       -0.3730274430
 H         -2.3892207013        3.8331420932        0.3656957070
 H         -2.1449148309        3.7107256562       -2.0310377259
 H         -2.9650026845        2.0811852793        0.2562581721
 H         -1.1939309553       -3.5309902459        0.7610136826
 H         -1.4067751585       -3.2145528020       -0.9824668254
 H         -2.5375781842       -2.5159015719        0.1951926465
 H          1.7797870249       -3.1876860089       -0.3751515388
