72
 energy: 41.835767140853 xtb: 6.6.1 (8d0f1dd)
N           -1.61921350462328        2.93500815710732        2.26221735915482
C           -1.63878829697384        2.22906194149879        1.22349873037991
C           -2.80371838672048        2.09835146147349        0.27570004399169
C           -3.35206108729163        0.67827967538843        0.34091423624770
C           -4.33412964197104        0.26348308531445       -0.56233505500379
C           -4.87092286429408       -1.00977991347828       -0.51478029161580
O           -5.83729576922812       -1.49363963399643       -1.35509700366627
C           -6.40985060411835       -0.62126471522424       -2.29168397225999
C           -4.41927512286555       -1.92294124660875        0.46078606317753
O           -5.01084011110322       -3.15661952077126        0.43273782419396
C           -4.66152727987591       -4.08281288977643        1.42550177827560
C           -3.44911478097932       -1.51385709217215        1.35565792755085
C           -2.92491745085259       -0.22806460866054        1.29429163380679
C           -2.25646881888601        2.36403054395688       -1.15847595790976
C           -1.32856742251372        1.26799930456817       -1.72058175938645
C           -0.03238280740781        1.24475287442946       -1.00712333372597
N            0.59698140692418        0.04700273473167       -0.65562195459323
C            1.98291577908653        0.05109782153978       -0.27497522913264
C            2.94574258291890       -0.38677797174850       -1.41388154486949
C            4.37755983049230       -0.35790803770433       -0.96002964054650
C            5.12998304304113        0.79339905689837       -1.12029862879993
C            6.43381864305352        0.78755595697459       -0.65223584552256
C            6.98303099306624       -0.33668795675513       -0.00663774109383
O            8.27266944321477       -0.27598802430263        0.45356066561959
C            9.05212712199378        0.88585854469143        0.27332498318396
C            6.22742071406537       -1.57429782216440        0.20550947157561
O            6.89189332574322       -2.67327150662220        0.87993901528614
C            6.91047205893803       -4.17175217879303        1.54528662969339
C            4.93543962029137       -1.48211323278095       -0.31446355893295
C           -0.04791031095792       -1.23804735946711       -0.77440486792320
C           -3.95597098345549        3.08489186959394        0.59580881816524
C           -4.58121787740003        2.77373699565674        1.95377069498223
C           -3.51222224264525        4.54567844485303        0.56337372417011
H           -4.68515530689320        0.95459735750250       -1.31239552646599
H           -6.87239222689022        0.24654610214335       -1.80841648343686
H           -7.17945518775365       -1.20090896097901       -2.80075624216281
H           -5.67696790879147       -0.27416636643875       -3.02901595511842
H           -4.88622236128429       -3.70512214310397        2.42869441500000
H           -5.27161643442802       -4.96470670517054        1.22864160205531
H           -3.60345636774166       -4.36460292281463        1.37162676588933
H           -3.09014251325478       -2.18374718515102        2.12088078387732
H           -2.18901990354548        0.06912038248998        2.02409625593663
H           -3.09691299913233        2.47460863301866       -1.84460440641040
H           -1.70015650347129        3.30204807287385       -1.14434019859253
H           -1.83904677336363        0.31201574766781       -1.65807092988621
H           -1.16337904594350        1.46571225323484       -2.79302150257391
H           -0.77065842070604        1.65846650871998        0.83857199425822
H            0.63356122766063        2.08684771774485       -1.10410999025743
H            2.15944433992609       -0.61711524479178        0.57999548111118
H            2.24233432030619        1.06284914585358        0.04103916776864
H            2.79040603939381        0.30183663548348       -2.24830115246852
H            2.66591862597244       -1.39932875615731       -1.72023192644591
H            4.71603496991616        1.67415393356891       -1.60365332892919
H            7.01990252603413        1.69484917281259       -0.78796358340496
H            8.63758236561698        1.76431769100214        0.78169853656028
H            9.20904587496586        1.13319759824529       -0.78588078564297
H           10.01832567355969        0.65275477685329        0.72264432216648
H            7.90585743792880       -4.37422656101836        1.99200157751151
H            6.13476743818744       -4.28039748214418        2.31420875843371
H            6.68562154921888       -4.88334121869562        0.74981422215261
H            4.29827581117887       -2.34388147837416       -0.18965708086625
H           -0.24197350103481       -1.52386948623447       -1.81792565105636
H           -1.00048301483167       -1.23698897016482       -0.23547285634350
H            0.58449167779518       -2.01177080620540       -0.33541017763010
H           -4.72202466953797        2.95067217614169       -0.17599453640410
H           -3.84510259638815        2.91851161305423        2.73342517874638
H           -4.93818044619018        1.74710765933973        1.99322178791568
H           -5.41857967836528        3.44203456391272        2.14010014179401
H           -2.72637377544829        4.70129104962175        1.29260697519856
H           -3.15644548194509        4.83239588801821       -0.42181308211142
H           -4.35306701531484        5.18821172508881        0.81756792605963
H           -0.73057438008695        2.89733288613335        2.74084381555379
