72
 energy: 21.752639372907 xtb: 6.6.1 (8d0f1dd)
N           -1.58793810403277        2.89987739381468        2.25651014924733
C           -1.61760438420224        2.20414612369868        1.21189366174778
C           -2.78965003564725        2.08862005196829        0.27008856910751
C           -3.34380476726506        0.67122140181455        0.33783385457876
C           -4.32696939319754        0.25944085360310       -0.56498064451928
C           -4.86541595215351       -1.01279133262672       -0.51824374809175
O           -5.83276738076360       -1.49325899468642       -1.35724723297407
C           -6.40620632296148       -0.61903314984529       -2.29236742856816
C           -4.41493681239668       -1.92796731250975        0.45640085912457
O           -5.00787655082006       -3.16021306092953        0.42652510272635
C           -4.66229430468387       -4.08659765915136        1.42083870499894
C           -3.44335209112948       -1.52069577930053        1.35047039485772
C           -2.91639407259962       -0.23583931886331        1.28995566597458
C           -2.24251879534671        2.34799178452524       -1.16373437285577
C           -1.31016664827209        1.24798934699970       -1.70944161911504
C           -0.02558502674822        1.22043765494749       -0.96920829260041
N            0.61107140622356        0.02199472167488       -0.64495310154234
C            1.98978992608855        0.02869752720600       -0.25069147945119
C            2.94585707573964       -0.42294873075720       -1.38430014070895
C            4.37590847391565       -0.37969205514373       -0.93362295644606
C            5.11912459997728        0.77586920602806       -1.10434801091441
C            6.42392388674346        0.78114932437352       -0.63913386965630
C            6.98731512068275       -0.32959746218290        0.01392590343600
O            8.28147664722992       -0.26947589720921        0.46428507515999
C            9.05681105865860        0.89400045390814        0.28265236568477
C            6.24541011342211       -1.56125911229626        0.22969194903676
O            6.91825803153847       -2.65019353422650        0.91546341284078
C            6.78036414987358       -4.04140516699864        1.45516190036731
C            4.94702414382784       -1.48996151995404       -0.28157703825289
C           -0.04737660083611       -1.25525709687360       -0.74196945810585
C           -3.93628776605541        3.08263037600331        0.59229097594742
C           -4.56239180320334        2.77438848888545        1.95067463251910
C           -3.48571053324967        4.54119763476776        0.56041683519642
H           -4.67906761384049        0.95231336807916       -1.31280742091253
H           -6.86717972734600        0.24879838814160       -1.80747313954911
H           -7.17781713181056       -1.19709546133468       -2.80025089645498
H           -5.67413967722546       -0.27256120451051       -3.03053761641148
H           -4.88529723835138       -3.70661917389287        2.42369766256301
H           -5.27608758450827       -4.96579257577883        1.22481313551149
H           -3.60522566516948       -4.37181569177789        1.36743446514018
H           -3.08582375429854       -2.19150866870585        2.11525341684752
H           -2.17867173466324        0.05912735591163        2.01889040383882
H           -3.08111184304308        2.45354491305441       -1.85332891057178
H           -1.68931353740335        3.28809000797829       -1.15612793980754
H           -1.82715784454700        0.29380342556392       -1.65411410399557
H           -1.12461539305573        1.44590158714415       -2.77765329104077
H           -0.75019374926105        1.65319870284170        0.79324333310531
H            0.63513125792655        2.06656682553708       -1.06361920666857
H            2.15259956824639       -0.62998077027962        0.61334766386984
H            2.25268462864703        1.04261734648262        0.05570151617939
H            2.78227783076684        0.24893847011541       -2.23075840556030
H            2.66852623313088       -1.43962791927180       -1.67388408234725
H            4.69364274529767        1.64943684130369       -1.59292766857815
H            7.00307029407845        1.69029467388394       -0.77676239104415
H            8.64080218558080        1.77282713305791        0.78939917154118
H            9.21043247528426        1.13844355675048       -0.77698802252469
H           10.02281956942551        0.66007982397463        0.73145412376264
H            7.73180083966046       -4.33997065832463        1.92405559510653
H            5.97205176163096       -4.12497362366427        2.20192052351489
H            6.52961019264331       -4.72925711667185        0.63560725302102
H            4.31919614829219       -2.35889514161341       -0.14966602768059
H           -0.23901980681081       -1.54853665072116       -1.78262823067049
H           -1.00278830281099       -1.23565763054512       -0.20785821235656
H            0.57896988072510       -2.02385549344037       -0.28828785876890
H           -4.70420962628699        2.95310441997977       -0.17860320612012
H           -3.82533749983677        2.91488982962181        2.73064234762216
H           -4.92440521280874        1.74945294752650        1.98984357930933
H           -5.39683198495347        3.44646695663975        2.13703747200402
H           -2.69792628809660        4.69565759777636        1.28825558960839
H           -3.13018801385033        4.82778185292812       -0.42501107033022
H           -4.32355953172000        5.18751710582477        0.81564218341785
H           -0.69901560444692        2.86449983540430        2.73403049052780
