72
 energy: -4.060772718766 xtb: 6.6.1 (8d0f1dd)
N           -1.51786973747075        2.80589050231150        2.24410561209907
C           -1.57004518730644        2.15872437260286        1.16874875151359
C           -2.75802695132374        2.06663911255090        0.25205942112580
C           -3.32328483081904        0.65406985207928        0.32834090010639
C           -4.30994854852860        0.24975454252778       -0.57345432168946
C           -4.85387709605399       -1.01935090550109       -0.52734233066845
O           -5.82347218116950       -1.49028645798276       -1.36250716923646
C           -6.39931164033209       -0.61174341789207       -2.29439913021672
C           -4.40328070455579       -1.93806256811115        0.44642385756582
O           -4.99650868699616       -3.16546455858701        0.41435118740854
C           -4.66291372157533       -4.09605991553160        1.41139900405217
C           -3.42832884973345       -1.53673704760051        1.33907815373630
C           -2.89502059195838       -0.25401229191582        1.27924643357008
C           -2.20787769758000        2.31211443652943       -1.17895337671132
C           -1.27289334909443        1.19599915417719       -1.67832721650959
C           -0.00227122357498        1.14941127111359       -0.90883029752622
N            0.63685315635087       -0.03569125867266       -0.59301652086007
C            2.00329321345789       -0.02005316404051       -0.18585846100990
C            2.94198190967531       -0.50845861798440       -1.31010467673488
C            4.36791135118971       -0.42141592211982       -0.86641539236360
C            5.08991505074247        0.74264603834583       -1.05979248631351
C            6.40126936952444        0.82493970015048       -0.61381512703813
C            6.99349715993505       -0.24465131921384        0.04445946857323
O            8.27708184492142       -0.23137168842190        0.51156815901487
C            9.06400511170415        0.91650132935081        0.30963492099278
C            6.26532684267212       -1.44990970592297        0.26585955655102
O            6.95793023967146       -2.45063207152266        0.92427486621829
C            6.45078918799311       -3.73170044003958        1.23769289469932
C            4.96170362026922       -1.49808809844327       -0.19761070505275
C           -0.04745160817797       -1.29401193389436       -0.65629588274505
C           -3.88743921554323        3.07853410964252        0.58550440128243
C           -4.51363514531624        2.77482524358799        1.94512324549272
C           -3.41969039002019        4.53206707664331        0.55254807293283
H           -4.66436628706342        0.94713742932794       -1.31510337756330
H           -6.85501910138175        0.25590999370101       -1.80521109152078
H           -7.17526957301462       -1.18832540228269       -2.79601557861356
H           -5.66967183538721       -0.26914756103505       -3.03655863409565
H           -4.88291099956669       -3.71225833138849        2.41322266041735
H           -5.28655700359539       -4.96710825739943        1.21471580091460
H           -3.60870791024957       -4.39016777960911        1.35838029840246
H           -3.07452975739783       -2.21064790741901        2.10295736138166
H           -2.15403049638106        0.03360683855154        2.00890724703166
H           -3.04093162076150        2.40289752132740       -1.87745136723577
H           -1.66191799950457        3.25671257170670       -1.18852636572925
H           -1.80741328605633        0.24885818079341       -1.63209533074911
H           -1.03668239403294        1.39454703026285       -2.73323053956114
H           -0.70213413335041        1.65055861760249        0.68176897534577
H            0.64317666116595        2.00922359254790       -0.97363717912064
H            2.13078383776078       -0.65942569890247        0.69487076068282
H            2.28715532827991        0.99726691794843        0.09363336197475
H            2.77027938988466        0.12008594433942       -2.18655763739638
H            2.67861876028610       -1.53707520700507       -1.56041499549541
H            4.64188767501610        1.58648257839964       -1.56956283027122
H            6.94884422254693        1.74288761813300       -0.78235058256310
H            8.64637633644053        1.79833684627041        0.80893271942533
H            9.20082993148164        1.13789940733691       -0.75554928740583
H           10.03111696179302        0.68193059002045        0.75248784489810
H            7.25588000978976       -4.27270490937904        1.73714421601575
H            5.58634047418814       -3.68656462540112        1.91387049541594
H            6.15968777236760       -4.27857117994656        0.33268384494447
H            4.37816686085482       -2.39306472129784       -0.04495509590490
H           -0.22737803936068       -1.60427201683256       -1.69178374098852
H           -1.00987041225337       -1.23935667418677       -0.13731393515753
H            0.56615414635378       -2.04962018593435       -0.17052943721211
H           -4.66024937877720        2.95664552487594       -0.18212816283352
H           -3.77552779422285        2.90505122157252        2.72830008515463
H           -4.88832919994147        1.75457924364255        1.98162568336582
H           -5.34201616877703        3.45474735658922        2.12945047520512
H           -2.62733511904894        4.68770973948239        1.27739723157242
H           -3.06548039347359        4.81904710920222       -0.43395704700721
H           -4.25165924249758        5.18410292410180        0.81040028836073
H           -0.62836622720336        2.79611823340301        2.73780555513538
