72
 energy: 72.069260880725 xtb: 6.6.1 (8d0f1dd)
N           -1.69013548940558        2.98523486389570        2.25455936936062
C           -1.69719028126286        2.24357178599746        1.24268446440039
C           -2.84837522416421        2.11025026347826        0.28510437940325
C           -3.38190609538290        0.68805493242898        0.34994587659535
C           -4.35295954064855        0.26964650477221       -0.56216650509504
C           -4.88424670731454       -1.00617053627155       -0.51184278817774
O           -5.83901681561203       -1.49033529743641       -1.35142944895652
C           -6.41899202484683       -0.62353868151100       -2.29329835570143
C           -4.43089095136822       -1.91606791879028        0.47201895636090
O           -5.00819331937512       -3.14644769047359        0.44411355245591
C           -4.65803733050392       -4.07601305855241        1.43990237800491
C           -3.46503183715621       -1.50006363974160        1.37045531571603
C           -2.95139954662861       -0.21046429592263        1.30902835502012
C           -2.29397636368343        2.39910225069593       -1.13911044861207
C           -1.38376449098845        1.30099713384273       -1.73250696519716
C           -0.03622554308532        1.22882488976298       -1.11971520284091
N            0.57967107986737        0.09906946877064       -0.74215906097959
C            1.97413615513583        0.11479442816208       -0.34481900757226
C            2.92018719149336       -0.26915734078484       -1.50217088640205
C            4.34249613600864       -0.25305063727102       -1.02468361236831
C            5.12239529878974        0.89462445763536       -1.16601259853353
C            6.43140270746648        0.89785438552117       -0.70335476994089
C            6.96666015473802       -0.21694433775276       -0.08543228075458
O            8.24331517524000       -0.26110217700860        0.39433618956357
C            9.05923696534641        0.87458444868056        0.25063189175669
C            6.18460515156678       -1.44851456040087        0.10147607363177
O            6.64708336691232       -2.46171267810537        0.65584666436470
C            7.45275494220637       -4.87582378696112        2.01356572633542
C            4.85614749868573       -1.37540827693500       -0.41375833666140
C           -0.04650097695624       -1.20217888010734       -0.87115359746856
C           -4.00860103237202        3.09053130936503        0.60846253272366
C           -4.63433274340522        2.77067888462076        1.96474589930386
C           -3.58805720467930        4.55649168521358        0.57375325754910
H           -4.70384829943120        0.95835321969892       -1.31305516931838
H           -6.88753005708482        0.24082345389407       -1.81163434659485
H           -7.18243879703547       -1.21322855405773       -2.79801727919337
H           -5.68663527602335       -0.27727666382483       -3.03036521565865
H           -4.89049308575678       -3.70081313640664        2.44160831137914
H           -5.25964153937304       -4.96140590764361        1.23837452988010
H           -3.59792579331697       -4.34598956852642        1.38610986617467
H           -3.10554815258667       -2.16498500347492        2.13829642065189
H           -2.22177987765415        0.09504856725323        2.04303421460647
H           -3.13757555180288        2.53100707949183       -1.81780361808308
H           -1.73507564718933        3.33319583120067       -1.10769691866026
H           -1.90059013170083        0.34896078297813       -1.65696455284099
H           -1.27369508422321        1.51896142738641       -2.81156384128742
H           -0.81619801467633        1.64012140894178        0.94707518424915
H            0.55074772110228        2.13774198136003       -1.09156273461051
H            2.14175178798111       -0.57616930346832        0.48775657731974
H            2.21846359155037        1.12123830556006       -0.00397609231860
H            2.80372879656662        0.46051322157460       -2.30559967962878
H            2.65442408136275       -1.27446033213596       -1.84867359523737
H            4.74133963116861        1.78399645703175       -1.64408514689087
H            7.01625584992902        1.79939564048717       -0.83638854759820
H            8.64882083090586        1.74811510012468        0.77001823766008
H            9.23092423958439        1.13885772592191       -0.80146702251836
H           10.01233954935572        0.61910943862225        0.71012518075296
H            8.47005320498504       -4.66315080120559        2.29646816267854
H            6.62887402258019       -4.79425533906956        2.69047751179779
H            7.17665317857002       -5.37943039887107        1.11043395031298
H            4.25080371416336       -2.27115450754769       -0.30546949808434
H           -0.24803867508711       -1.44505660012455       -1.91753956665856
H           -0.98970921633301       -1.23200358663608       -0.31785102910394
H            0.60706006941134       -1.97328822222812       -0.46810733093859
H           -4.77044827233080        2.94030949594637       -0.16487566173937
H           -3.90611193638740        2.92541641051527        2.75132738777717
H           -4.98039817366625        1.74111237727526        2.00248942214829
H           -5.48111389017352        3.42739286366009        2.14674521023026
H           -2.80796834249336        4.73089552766412        1.30566705285492
H           -3.23520803194279        4.84782541524110       -0.41067642567654
H           -4.44096120783821        5.18374691842448        0.82410667066197
H           -0.81842863997017        2.98527478527129        2.78401716899634
