72
 energy: 2.315504098490 xtb: 6.6.1 (8d0f1dd)
N           -1.54588670545663        2.84305079539689        2.25079530047820
C           -1.59176208018581        2.17018075321092        1.19114468154583
C           -2.77092375114673        2.07466499555222        0.26038627137817
C           -3.33189137701463        0.66054493027449        0.33229887465288
C           -4.31683271378921        0.25337348027279       -0.56998139897476
C           -4.85862160449602       -1.01690830449468       -0.52388934282621
O           -5.82714510700066       -1.49164458993152       -1.36066201401849
C           -6.40191607700654       -0.61463692023898       -2.29394016196455
C           -4.40805420007913       -1.93431072986845        0.45014283671499
O           -5.00131223158908       -3.16366174558562        0.41876731014048
C           -4.66309143455456       -4.09245252238749        1.41521921924441
C           -3.43433926621604       -1.53064276488968        1.34330462098847
C           -2.90362690020589       -0.24709689159544        1.28349292506186
C           -2.22163618484127        2.32606123030754       -1.17189326566353
C           -1.28653829228852        1.21726366071464       -1.69025800785872
C           -0.01195465481914        1.17843700163753       -0.92771899775830
N            0.63069821956223       -0.01490499660353       -0.62313937103824
C            1.99943612846770       -0.00165603937274       -0.21315025629893
C            2.94515561439340       -0.47494676154666       -1.34024760053635
C            4.37314964614181       -0.40696391457527       -0.89554684318189
C            5.10437978907324        0.75389142698560       -1.07747163160168
C            6.41542961894160        0.80381638827290       -0.62232834988681
C            6.99072174011059       -0.28219249188829        0.03318590216186
O            8.28069276979095       -0.25058361930024        0.49287778264318
C            9.06070896363753        0.90584695811461        0.29945091302721
C            6.25498233996861       -1.49772841445882        0.25247469907199
O            6.94174746951247       -2.52591007596690        0.92225068229926
C            6.58297148789550       -3.85228319734178        1.32362855751237
C            4.95436890597252       -1.49841031397284       -0.23264558481639
C           -0.04640429587522       -1.27939206453825       -0.69129449812812
C           -3.90723508553888        3.07999665280618        0.58800840581857
C           -4.53392048021849        2.77488998062139        1.94691308206884
C           -3.44610970523886        4.53538606003418        0.55567446940931
H           -4.67031837771728        0.94913916799678       -1.31384284897193
H           -6.85968388059964        0.25301520220778       -1.80631310947330
H           -7.17596975449322       -1.19166765730693       -2.79836722450605
H           -5.67062155264241       -0.27021332550759       -3.03369463822988
H           -4.88419007704956       -3.70969434910050        2.41721661765366
H           -5.28278628523882       -4.96678049393971        1.21878703003463
H           -3.60771689676287       -4.38298214572709        1.36201494688304
H           -3.07907745217019       -2.20321408690277        2.10747424971576
H           -2.16384241173397        0.04385854879994        2.01261748905762
H           -3.05689128456569        2.42301994285684       -1.86715446992891
H           -1.67326487439297        3.26905588158013       -1.17465407203053
H           -1.81393789174873        0.26771664892979       -1.63923497847110
H           -1.07086841497298        1.41443135164573       -2.75143700369061
H           -0.72204923345813        1.64859259820983        0.72699133575560
H            0.63973264935586        2.03260510231999       -1.00843583674286
H            2.13917663293545       -0.64810811466480        0.66189468925960
H            2.27286675132608        1.01477766106429        0.07771863816828
H            2.77465924685866        0.17103596763495       -2.20445067109632
H            2.67508613416836       -1.49879419211264       -1.60543265097851
H            4.66426020331078        1.61071127598395       -1.57740361524489
H            6.97406341463975        1.72151124909967       -0.77670891768722
H            8.64340239352489        1.78668455904805        0.80169696891725
H            9.20421358442542        1.13810348660722       -0.76363306754691
H           10.02781245896465        0.67286497955864        0.74420299482835
H            7.45374226041704       -4.29614244573898        1.81333697372094
H            5.73813489371145       -3.86639910034096        2.03089169124659
H            6.30416378116140       -4.46366037540938        0.45384902631047
H            4.35327346721040       -2.38311823459755       -0.08711213466823
H           -0.23192290397235       -1.58348236602536       -1.72817727860303
H           -1.00603753727171       -1.23657536699128       -0.16560498311104
H            0.57169600518806       -2.04007999801578       -0.21714938849859
H           -4.67772994564201        2.95542986841512       -0.18135038961789
H           -3.79606388723196        2.90905388350557        2.72844598358015
H           -4.90344430487938        1.75270835349796        1.98463795779476
H           -5.36460721750195        3.45181509801362        2.13215563070986
H           -2.65561275740337        4.68972159573771        1.28179911370490
H           -3.09106020134148        4.82190983169581       -0.43027961280783
H           -4.28020199707965        5.18572388516504        0.81226267992372
H           -0.66013965495774        2.82453195723858        2.74570921634080
