72
 energy: 7.395631571210 xtb: 6.6.1 (8d0f1dd)
N           -1.55979809718523        2.86223540815746        2.25326342281815
C           -1.60042276837976        2.18148777009103        1.19889766583804
C           -2.77712906520003        2.07939327237140        0.26392485321074
C           -3.33590083499347        0.66416030280760        0.33421506647072
C           -4.32022770374557        0.25540964453410       -0.56825610849174
C           -4.86091137171029       -1.01552881573693       -0.52204339380398
O           -5.82904428634650       -1.49222632753878       -1.35952184492259
C           -6.40335353478900       -0.61610625792513       -2.29343358256997
C           -4.41045762803546       -1.93224850538794        0.45217324757200
O           -5.00362476478099       -3.16261973268178        0.42115608567681
C           -4.66286888457701       -4.09051109368595        1.41708090685374
C           -3.43740935994706       -1.52731600993021        1.34557161847846
C           -2.90791295858840       -0.24335090462465        1.28559140147100
C           -2.22869023141631        2.33313184903739       -1.16887529470656
C           -1.29399938439189        1.22765290135829       -1.69620448646482
C           -0.01662798484728        1.19295695636512       -0.93928519389120
N            0.62629730859551       -0.00310577736635       -0.63432445396155
C            1.99699872416521        0.00786592908183       -0.22629609860583
C            2.94589527011804       -0.45822736118069       -1.35521334056976
C            4.37416981080994       -0.39929038852588       -0.90852016097479
C            5.10892570008595        0.75987986354443       -1.08617627546019
C            6.41780342555063        0.79196724054475       -0.62648046075036
C            6.98881989813357       -0.30055620395859        0.02841792259883
O            8.28203887455841       -0.25698309076632        0.48274686827136
C            9.05927429051775        0.90210225294346        0.29362896939403
C            6.25108887276022       -1.52176972521549        0.24759668359774
O            6.93669038669986       -2.56928735681326        0.92114695444961
C            6.64906935880105       -3.91516188318504        1.36735922563942
C            4.95140885678007       -1.49649430071608       -0.24777571148404
C           -0.04615693691608       -1.27159100637084       -0.70862048852911
C           -3.91701934517705        3.08089873532469        0.58937654492584
C           -4.54350269503073        2.77473624338992        1.94810009287828
C           -3.45934761636166        4.53727170656715        0.55735288301611
H           -4.67332235644917        0.95013613723209       -1.31347162763369
H           -6.86216731336216        0.25159626120922       -1.80666382784469
H           -7.17656716428923       -1.19336663630005       -2.79917429944257
H           -5.67160346928405       -0.27087747260446       -3.03238735451433
H           -4.88450274745209       -3.70850575849026        2.41930567720994
H           -5.28056517572828       -4.96651355223187        1.22085499439687
H           -3.60691022106305       -4.37923497343048        1.36376385908724
H           -3.08133757831753       -2.19926322076531        2.10987878896305
H           -2.16864621260311        0.04909296197669        2.01439971826853
H           -3.06496262488465        2.43305530667885       -1.86240001892987
H           -1.67876575853401        3.27512523464623       -1.16819568821011
H           -1.81778019782880        0.27667885303987       -1.64344255766055
H           -1.08851598742021        1.42489272416849       -2.75990787839605
H           -0.73145373673506        1.64999196558155        0.74896679030522
H            0.63795662162374        2.04442785487667       -1.02627356886199
H            2.14347186146926       -0.64243544140952        0.64547598781786
H            2.26613597989832        1.02355161970184        0.07002051177226
H            2.77740680709048        0.19695519561647       -2.21315208367788
H            2.67266460998320       -1.47939647356282       -1.62858713260377
H            4.67415938755129        1.62299288235727       -1.58220410419326
H            6.98014012774810        1.70769174495458       -0.77602699010377
H            8.64233189492832        1.78230937626235        0.79720986125002
H            9.20624611672780        1.13887270278965       -0.76819765619015
H           10.02607897066373        0.66891708357768        0.73979631484784
H            7.54907941980924       -4.30972722000855        1.85102987621356
H            5.81527463726672       -3.95341785436469        2.08832947243853
H            6.37818698537278       -4.55419564196666        0.51443859373555
H            4.34120146716816       -2.37624204098592       -0.10777174395510
H           -0.23445418328253       -1.57227778950100       -1.74643738584780
H           -1.00431192429145       -1.23554591063114       -0.17965526829780
H            0.57431559267824       -2.03515645521532       -0.24103382894262
H           -4.68663189591847        2.95488931623914       -0.18052298057994
H           -3.80582823966488        2.91089722753555        2.72901134852470
H           -4.91050044976661        1.75161735187703        1.98628789794105
H           -5.37535088103692        3.45013022201624        2.13390114771619
H           -2.66970719779645        4.69145183220594        1.28398517374793
H           -3.10410241741679        4.82370464203922       -0.42839938411415
H           -4.29457322628718        5.18648702184862        0.81350537788997
H           -0.67420034896873        2.83737502033040        2.74472730436079
