72
 energy: 71.908756519163 xtb: 6.6.1 (8d0f1dd)
N           -1.68942071334687        2.97529268588725        2.24707820199971
C           -1.69796865798511        2.24295629770218        1.23074735377993
C           -2.85368911733788        2.11327611457887        0.28557794364828
C           -3.38611323071086        0.68981528667517        0.35183713932505
C           -4.35668609747088        0.27061080566240       -0.56028171296561
C           -4.88707001062793       -1.00506450880106       -0.51020319327348
O           -5.84010135350506       -1.49012948795124       -1.34984547418335
C           -6.42035771014026       -0.62398677496923       -2.29332740410194
C           -4.43339760915248       -1.91408948094662        0.47468950650419
O           -5.00870201215794       -3.14446273431606        0.44648468926995
C           -4.65762894311157       -4.07497757261315        1.44201623404384
C           -3.46834143141743       -1.49675573057176        1.37266377859438
C           -2.95455276269673       -0.20745553347202        1.31159803352658
C           -2.29795325201263        2.40388927445626       -1.13538066290280
C           -1.38942166753100        1.30540602333674       -1.73260297396398
C           -0.03848998207670        1.22600725387060       -1.12137186211583
N            0.58033947579929        0.10223881398366       -0.75493397949741
C            1.97184141129801        0.12574704713487       -0.35388110534273
C            2.91696035418773       -0.24934526580451       -1.51079407491630
C            4.33970289171873       -0.23848328514405       -1.03493826024874
C            5.12119832089405        0.90864626665671       -1.17260806914279
C            6.42918351661585        0.90778845722593       -0.70790354126715
C            6.96292090289923       -0.21068007032690       -0.09192618168409
O            8.23894292078951       -0.25679081930795        0.38746953777056
C            9.05914869768921        0.87475311926133        0.24867395343125
C            6.17878036353123       -1.44500300836394        0.09398752558929
O            6.62353607286011       -2.47131054307960        0.64938020898692
C            7.51493065171809       -4.96974480294976        2.07395973859701
C            4.85089749724239       -1.36222665909247       -0.42496952620606
C           -0.04721887992608       -1.19514502310285       -0.88648188694127
C           -4.01654537170554        3.09091546706508        0.61025596699143
C           -4.64238503475640        2.77063328346323        1.96661288625977
C           -3.60003104959720        4.55781377137283        0.57618076164394
H           -4.70733416640547        0.95830956994833       -1.31245640125591
H           -6.89020084048085        0.23970970060055       -1.81190586417064
H           -7.18268454942777       -1.21544256223701       -2.79730876668432
H           -5.68813380387530       -0.27794308355046       -3.03039808631324
H           -4.89210377876196       -3.70054240780822        2.44343774156208
H           -5.25839779463620       -4.95990151850888        1.23821617656810
H           -3.59717633665722       -4.34275796026536        1.38834914135153
H           -3.10874548734250       -2.16154137122462        2.14090873186148
H           -2.22689599168418        0.09832746488333        2.04698021100848
H           -3.14109874022227        2.53972423471246       -1.81217431590138
H           -1.73931068687838        3.33885390870366       -1.10234794260007
H           -1.90984486531657        0.35302570038211       -1.65857454133647
H           -1.27815020426346        1.52962583650378       -2.80544762569272
H           -0.81905473210229        1.64798524648473        0.92386269972979
H            0.53618839592261        2.14090560730606       -1.08007786739903
H            2.13498815954375       -0.56976675018542        0.47497001506763
H            2.21487996709680        1.13195646764745       -0.00873306306530
H            2.80711929451224        0.48600238539040       -2.31150202947302
H            2.65138670528529       -1.25204343318270       -1.86743160256845
H            4.74137872513062        1.79934176480995       -1.65052709656752
H            7.01495148726339        1.80977673062886       -0.84057598243086
H            8.65254230917980        1.75093884528240        0.76890998676954
H            9.23414462673289        1.14205744923779       -0.80216774215909
H           10.01051548296426        0.61431740945702        0.70930545783620
H            8.53024851198076       -4.73545570757794        2.34800589790826
H            6.69364449441743       -4.88663955401725        2.75419651392150
H            7.24710994240095       -5.47111280496030        1.16757062632578
H            4.24246465328547       -2.25816141360279       -0.32283917516976
H           -0.25028268889224       -1.43144041155008       -1.93364454986806
H           -0.98956058044272       -1.22807788206768       -0.33139215934860
H            0.61154996089843       -1.96233598239589       -0.48689039733015
H           -4.77878702251902        2.93998665985999       -0.16286537947031
H           -3.91498004976484        2.92670671230291        2.75433062346536
H           -4.98662553789932        1.74012983188720        2.00476940402574
H           -5.49072875391758        3.42615759485765        2.14791684955041
H           -2.82065380596741        4.73663338492884        1.30810351256199
H           -3.24789839482405        4.85127959857270       -0.40816103951851
H           -4.45503161737860        5.18294698363813        0.82578310034237
H           -0.82566854091799        2.99632489957940        2.78899581383995
