72
 energy: 70.482925183422 xtb: 6.6.1 (8d0f1dd)
N           -1.70221234250715        2.99898817036773        2.25289383450813
C           -1.70465620057113        2.27736943501171        1.23004661463787
C           -2.87428203702118        2.13394739675170        0.29568462272734
C           -3.39527488609543        0.70456820583416        0.35590472908417
C           -4.36199086173433        0.27793419281394       -0.55850633637989
C           -4.88866229583936       -0.99884059495846       -0.50909805517602
O           -5.84041791545969       -1.48823763528807       -1.34928227763580
C           -6.42409995911524       -0.62593596148988       -2.29265980014195
C           -4.43615245701587       -1.90505410413455        0.47840294292745
O           -5.01085903278324       -3.13606953373446        0.44826353562340
C           -4.66201338024404       -4.06817103693133        1.44090845338024
C           -3.47628144498179       -1.48196249442168        1.37850720819500
C           -2.96568536883975       -0.18982998566084        1.31831443231632
C           -2.33083602476794        2.44057909621726       -1.12500501082066
C           -1.44118103800843        1.33767873960364       -1.72132326548347
C           -0.09843621094112        1.27340848322014       -1.09665905660774
N            0.55742405570276        0.14881722267608       -0.80200332494514
C            1.94346753916449        0.19426579364085       -0.41116904731896
C            2.87960320565666       -0.13024641611764       -1.58876020126367
C            4.30439946909169       -0.12746247288386       -1.10353679994464
C            5.09732567756677        1.01233310196749       -1.22210507182035
C            6.40645838359483        1.00399258887887       -0.74959203161212
C            6.94254736632083       -0.10861314267604       -0.13563349363705
O            8.20771584785084       -0.19054067494478        0.35365450172194
C            9.06627256208260        0.91263266049406        0.23942698051729
C            6.14375420640978       -1.32343653655510        0.03865717005433
O            6.57527084725040       -2.34761432641915        0.59828562932192
C            7.75514780438354       -5.67977256830720        2.44174850032974
C            4.81661151902233       -1.24560121494048       -0.48895225954817
C           -0.04995551929975       -1.14871540799491       -0.95935483575274
C           -4.05284946726472        3.09407383162629        0.62569697663195
C           -4.68065336922739        2.76537786108715        1.97910920245793
C           -3.65839476064112        4.56907057828510        0.58857771416084
H           -4.71471187732051        0.96328028958886       -1.31189642820249
H           -6.89873163286371        0.23700905456416       -1.81364924016401
H           -7.18528551106383       -1.21974192061525       -2.79630108274974
H           -5.69474312921263       -0.27672755338598       -3.03191417771005
H           -4.90123499330307       -3.69908019407396        2.44357412893779
H           -5.26086818206159       -4.95291426915977        1.23124256837724
H           -3.60012938738961       -4.33228720419521        1.39501699827077
H           -3.11998400043167       -2.14529283007920        2.15042074008269
H           -2.23955431225862        0.11111468429035        2.05750265894121
H           -3.17669535237995        2.59523784452806       -1.79542136454593
H           -1.76250322266220        3.37113026424141       -1.09165471608267
H           -1.95804032045604        0.38085474627204       -1.65838083271188
H           -1.30908117823607        1.57336752843019       -2.78670423007631
H           -0.82790807051363        1.70718836774587        0.86989161553240
H            0.46743048962728        2.18957957251461       -1.02088915938890
H            2.11189697752531       -0.52465697614043        0.39580056476809
H            2.17999022225125        1.19140245447856       -0.03399178784165
H            2.72897214693069        0.61330062108444       -2.37483738019590
H            2.62806029076202       -1.11636443980171       -1.98749406657562
H            4.70554320887656        1.90101365298717       -1.69649718065628
H            6.99701473630238        1.90046561789343       -0.87708112800539
H            8.67538182954561        1.79090887006765        0.76652947908309
H            9.25391627205406        1.17882586129906       -0.80766886103413
H           10.00290957604659        0.60546996329041        0.70387407239996
H            8.73633116265428       -5.32711504168769        2.66549617399001
H            6.97915957999740       -5.59927251666924        3.16861445439105
H            7.56357315471455       -6.17431046976677        1.51713534112179
H            4.22568650803822       -2.14584680131177       -0.38941848058484
H           -0.27456706053124       -1.36214491102241       -2.00741409777589
H           -0.97766949087152       -1.20523021315638       -0.38333881418090
H            0.63622919510271       -1.90693372436795       -0.59164741379655
H           -4.81432699888340        2.93071726245968       -0.14605959296856
H           -3.95868906626035        2.93204030016036        2.77131088400222
H           -5.01218795849191        1.73055874397151        2.01523749622788
H           -5.54109310620953        3.40833119796695        2.14797557033052
H           -2.88379343619993        4.76814014993634        1.32190302225591
H           -3.30686061278492        4.86994510706604       -0.39504946313723
H           -4.52615483142803        5.17703507690360        0.83287435581231
H           -0.83494482591609        3.02537425059340        2.78438228554793
