72
 energy: 67.900715187627 xtb: 6.6.1 (8d0f1dd)
N           -1.65165238998398        2.95503142097204        2.26705195508876
C           -1.66062761407171        2.25061005147279        1.23235547345426
C           -2.81912581615798        2.10603434516406        0.28123247389281
C           -3.36149100955030        0.68317367109015        0.34418154884654
C           -4.34158027653844        0.26696776070943       -0.56118849437536
C           -4.87653281487679       -1.00796388768303       -0.51395723538478
O           -5.83807061187593       -1.49215924292955       -1.35310062326107
C           -6.41333207385316       -0.62229301448437       -2.29203602232613
C           -4.42351767460723       -1.91918231548286        0.46555144294606
O           -5.00761542145778       -3.15140443374674        0.43690092184890
C           -4.66001177301912       -4.08026820193774        1.43063791126414
C           -3.45440889737831       -1.50779785008606        1.36139975871521
C           -2.93305185432814       -0.22102452693207        1.29884141237111
C           -2.26878983901185        2.37912347956844       -1.15014943881422
C           -1.35027013781982        1.28252932250445       -1.72355856236748
C           -0.02873701171157        1.23774489794636       -1.06082789535682
N            0.58366900034753        0.07761130931068       -0.69131044341223
C            1.98013657936115        0.07451452102640       -0.30227383699491
C            2.93553346729744       -0.34652465624875       -1.44702300344177
C            4.36847000739106       -0.32135577547501       -0.98522834862091
C            5.12431194747658        0.82815981017579       -1.13835751467977
C            6.43393971704497        0.82861023568378       -0.67260052301218
C            6.96769992014047       -0.28537426480276       -0.03491313875912
O            8.25981642874792       -0.27695801866283        0.43598173716295
C            9.05038272633345        0.87492357620369        0.26547719983529
C            6.20783896697653       -1.53140883934996        0.16956349204942
O            6.80777145826933       -2.54834631238433        0.73299780259332
C            7.10628468257260       -4.47913430632155        1.74344525727855
C            4.90397925663822       -1.44620369081608       -0.35076456836076
C           -0.04840866180750       -1.22341784703165       -0.80787049982880
C           -3.97539625296130        3.08765356474064        0.59987441306962
C           -4.59950191794054        2.77233544947814        1.95699208822388
C           -3.53827471319948        4.54990154534165        0.56633202651044
H           -4.69150730794735        0.95699039600894       -1.31276107874442
H           -6.87740552434847        0.24458049128266       -1.80959978975765
H           -7.18077088468287       -1.20496847910103       -2.80018397366431
H           -5.68012305030542       -0.27566125182565       -3.02902397429271
H           -4.88718331838784       -3.70350334283430        2.43326219569716
H           -5.26736589794272       -4.96336355326248        1.23201689571105
H           -3.60141937891781       -4.35874488931411        1.37679948681995
H           -3.09453157987353       -2.17620921331870        2.12673726649354
H           -2.19931620024899        0.07926145384884        2.02969366142819
H           -3.10915455428650        2.49338496606119       -1.83501502044755
H           -1.71111407217368        3.31499020639518       -1.13149615753954
H           -1.85981465911971        0.32726812442754       -1.65626890096535
H           -1.19778275144865        1.48353633186832       -2.79638209055955
H           -0.78873716340996        1.66347278751500        0.88311525792104
H            0.61402113327068        2.10459151945259       -1.10347548605888
H            2.15763077904333       -0.60185436879056        0.54372711398167
H            2.23239159028659        1.08282666544902        0.02464624044801
H            2.79325593634178        0.35727613252654       -2.27042121174809
H            2.66169034433745       -1.35752992936760       -1.76798476039350
H            4.72668918718072        1.71225051635993       -1.61971028046919
H            7.01816796836740        1.73496860080968       -0.80806536914855
H            8.63657801380220        1.75403524566354        0.77608698944787
H            9.21138288434820        1.12736520672317       -0.79322126737815
H           10.01460691500303        0.64073288455566        0.71747291996556
H            8.12987717149813       -4.43174282081057        2.09102503726072
H            6.30347338355337       -4.46787249652509        2.45652720800410
H            6.85404239930612       -5.06073211558464        0.87623482216522
H            4.28427570072594       -2.32177265619316       -0.22905975827529
H           -0.24415560431402       -1.49895996359368       -1.85168187857062
H           -0.99669268665127       -1.23607629548234       -0.26336660709186
H            0.59058875611541       -1.99999326134187       -0.38283512414021
H           -4.73879016315068        2.94679716208587       -0.17263380270526
H           -3.86545104940842        2.92129001625854        2.73759464321400
H           -4.95184806885822        1.74448281373048        1.99613367946524
H           -5.43943974609680        3.43674459450409        2.14249205804706
H           -2.75474489193656        4.70862371967981        1.29702159512518
H           -3.18288150686021        4.83725630898908       -0.41849566962553
H           -4.38220014958832        5.18773551576667        0.81976358323277
H           -0.76393893873072        2.93386233731163        2.75280658791296
