72
 energy: 71.009789200060 xtb: 6.6.1 (8d0f1dd)
N           -1.66790615071040        2.96661351269761        2.26711624408946
C           -1.67370714882511        2.24891957277379        1.24056331469852
C           -2.82685315322476        2.10738662145148        0.28344130523039
C           -3.36694957120247        0.68533503966613        0.34580642372547
C           -4.34550973695124        0.26849117674834       -0.56022364348168
C           -4.87881322865901       -1.00710102776693       -0.51342821152811
O           -5.83804244174845       -1.49105248299632       -1.35318349080400
C           -6.41539516923811       -0.62278469311651       -2.29260316649378
C           -4.42575765067414       -1.91785219088676        0.46711139853574
O           -5.00712935507700       -3.14998551533984        0.43849629030945
C           -4.65965250263791       -4.07923701047266        1.43287447876031
C           -3.45785123449319       -1.50485695829651        1.36386252277890
C           -2.93776053667987       -0.21803667168038        1.30115245553298
C           -2.27486242105441        2.38435862336956       -1.14674565231163
C           -1.35876191495188        1.28981393896897       -1.73054242573916
C           -0.02851107837090        1.23704000733270       -1.08862140000648
N            0.58090001412787        0.08692752153963       -0.70471951666500
C            1.97681734089536        0.08757270271003       -0.31182861543678
C            2.92772507476877       -0.32940281298088       -1.46216813031246
C            4.35918387635272       -0.30603542941267       -0.99409544615968
C            5.12465390671951        0.84473712080779       -1.14671268565380
C            6.43468691822974        0.84835442981583       -0.68320071843178
C            6.96741544888441       -0.26216375891941       -0.04360532064052
O            8.25335438021419       -0.27598431325985        0.42685244390793
C            9.05283527449449        0.87107050415100        0.26259936983466
C            6.20544422521355       -1.50820477222613        0.15686285575587
O            6.74831929255863       -2.53451654779050        0.68014178974558
C            7.22015830189083       -4.59035352935752        1.82758449568693
C            4.88633663171726       -1.42664798594602       -0.36564112189857
C           -0.04878548407289       -1.21604192104802       -0.82372386036673
C           -3.98444757855143        3.08806596670549        0.60228950533491
C           -4.60834913436290        2.77226674534857        1.95969603603777
C           -3.55132821156566        4.55160093080782        0.56872748334062
H           -4.69481360470800        0.95772446592525       -1.31265516236069
H           -6.88073264397563        0.24343468987124       -1.81053772743795
H           -7.18161675955944       -1.20767612827024       -2.79977613642905
H           -5.68233902772494       -0.27617167404688       -3.02944676210788
H           -4.88850861228166       -3.70328851253417        2.43526324527896
H           -5.26549004666794       -4.96307733678305        1.23353155321441
H           -3.60057682328619       -4.35537842084828        1.37905619030049
H           -3.09712127297442       -2.17276517926428        2.12941770567461
H           -2.20438221037821        0.08380657622049        2.03198592065527
H           -3.11600995466570        2.50282571823311       -1.82989158314145
H           -1.71686680158664        3.31956323512864       -1.12503358209791
H           -1.86855562758325        0.33530032234309       -1.65806457605982
H           -1.21733522523318        1.49499330453772       -2.80257222053235
H           -0.79879663993459        1.65933275863715        0.90667182390586
H            0.60054353403590        2.11677007004786       -1.11188825475005
H            2.15230480370318       -0.59495223677052        0.52912425082656
H            2.23323143259332        1.09362929063487        0.01783548809751
H            2.79615971385454        0.37914546971647       -2.28296049299677
H            2.65793302902686       -1.33957972812585       -1.78722562342911
H            4.73229933476604        1.73026896105468       -1.62707829493968
H            7.01825986136721        1.75321511324383       -0.81787943763920
H            8.63837229484887        1.74803289630613        0.77565750925652
H            9.21755718603451        1.12617536132640       -0.79462375618437
H           10.01458080839359        0.63365704519294        0.71654277249672
H            8.24012441202127       -4.47376735972625        2.14356348901027
H            6.40781834903943       -4.53067521621651        2.51184626325715
H            6.95329718307047       -5.11764516294157        0.93986765346575
H            4.27390947524176       -2.30928153153990       -0.24581792031733
H           -0.24554565026485       -1.48519486841994       -1.86779080936309
H           -0.99593528407312       -1.23458520789338       -0.27746868199356
H            0.59186867165225       -1.99372595244357       -0.40470954327825
H           -4.74740237545698        2.94542601289269       -0.17039150493528
H           -3.87547736993824        2.92305505419683        2.74143718836943
H           -4.95879251466133        1.74369264255498        1.99872169409455
H           -5.44977629762500        3.43508675693227        2.14468178557169
H           -2.76869520551291        4.71326680778586        1.29973787571498
H           -3.19656245743448        4.83946210773228       -0.41609078007969
H           -4.39736434760358        5.18707778303772        0.82144721846054
H           -0.78153115823835        2.94994378633647        2.75964552781280
