72
 energy: 70.863275460271 xtb: 6.6.1 (8d0f1dd)
N           -1.71339812737912        3.01019029941358        2.25070568381370
C           -1.71117794655244        2.28129757318524        1.23353369208555
C           -2.87969199490401        2.13624386271143        0.29763524078281
C           -3.39821090162810        0.70579635317524        0.35771753864869
C           -4.36382114504674        0.27824447747303       -0.55814207543057
C           -4.89058230794501       -0.99831216762798       -0.50779784448456
O           -5.84106903130786       -1.48871233360802       -1.34760719918350
C           -6.42480040484706       -0.62711930479111       -2.29201592566293
C           -4.43768880832858       -1.90350317781520        0.48112666809975
O           -5.01128915842950       -3.13436225704352        0.45110106567675
C           -4.66150393411264       -4.06723799457154        1.44298260948909
C           -3.47853243260153       -1.47999897694511        1.38160750744504
C           -2.96893652437991       -0.18716220878276        1.32143804798833
C           -2.33087821177339        2.44493433988226       -1.12122735604050
C           -1.44636126202315        1.34030825279010       -1.72275989585699
C           -0.10041861296981        1.27486205603624       -1.10702652728004
N            0.55767884072775        0.15368027067038       -0.81282987291251
C            1.94183742066184        0.18983149069824       -0.41144830151012
C            2.88393415611247       -0.14443005008142       -1.58286650551649
C            4.30491775199255       -0.13568402297981       -1.09935998604637
C            5.09864081950320        1.00338818720795       -1.21728834737654
C            6.40796471659025        0.99723199470202       -0.74738893380460
C            6.94323345101245       -0.11887730140291       -0.13500235892222
O            8.20971971386426       -0.19941685422688        0.35673351135428
C            9.06560910800099        0.90690839209424        0.24179098918005
C            6.13639411579797       -1.33250476259523        0.03645921199573
O            6.54245908210718       -2.36756759009476        0.59308112559164
C            7.77260604733990       -5.58693255004747        2.41284742360743
C            4.81131433951083       -1.25445299190045       -0.48921688321582
C           -0.04827973224632       -1.14461012481690       -0.97159790673653
C           -4.06053317161127        3.09441335759861        0.62707348635977
C           -4.68911646474989        2.76522430918485        1.98031361194107
C           -3.67134117948028        4.57077768826467        0.58931563862834
H           -4.71497793103861        0.96433393443552       -1.31124442321558
H           -6.90030883327073        0.23527841837003       -1.81318076482986
H           -7.18541881420880       -1.22129269398151       -2.79584834682270
H           -5.69512101802458       -0.27782987337119       -3.03103745506893
H           -4.90156693184402       -3.69890349909157        2.44556648099984
H           -5.25941375484257       -4.95241148185089        1.23205127695241
H           -3.59919405489903       -4.32912354464920        1.39663123504276
H           -3.12260669236199       -2.14214368230993        2.15432192030809
H           -2.24449800940972        0.11321208904186        2.06238714889021
H           -3.17643084861716        2.60228868480038       -1.79037046937017
H           -1.76430201687279        3.37631944661422       -1.08413900053265
H           -1.96405395810586        0.38498472268443       -1.66144256786898
H           -1.32069337951399        1.58610269940152       -2.78644667226299
H           -0.83285105344544        1.70254222158968        0.88432650663191
H            0.45216687346698        2.19661337779874       -1.02236396627980
H            2.10028995387246       -0.52404581607669        0.39989126816479
H            2.18587966515929        1.18934773792038       -0.04297781420809
H            2.74748583755422        0.60576324349620       -2.36496672678787
H            2.62916427344775       -1.13305193971195       -1.98020878461674
H            4.70622635032755        1.89224933688502       -1.69101891087308
H            6.99837430618274        1.89541145328829       -0.87425792807009
H            8.67326755147098        1.78504299379479        0.76851510279702
H            9.25221972275602        1.17396210929724       -0.80551671830505
H           10.00563347736992        0.60449625970316        0.70445035672254
H            8.75574295347141       -5.28439038230299        2.65620240955091
H            7.00232479422456       -5.48801239090528        3.13193450945610
H            7.59337194869257       -6.07680105297113        1.49114049492770
H            4.22032255066729       -2.15788279027019       -0.38833401252986
H           -0.27117818886523       -1.35159232082862       -2.02147749495419
H           -0.97699440704338       -1.20432380136583       -0.39836689081737
H            0.63849027659424       -1.90397279174574       -0.60501180858066
H           -4.82105433611467        2.92706833514739       -0.14470094883308
H           -3.96828553062755        2.93369806200964        2.77342807792667
H           -5.01875714441779        1.72991347409775        2.01647003886471
H           -5.55142053236524        3.40626919159624        2.14787474890023
H           -2.89803134008713        4.77251107166713        1.32327374982270
H           -3.32069521152414        4.87253163871676       -0.39426734480780
H           -4.54142835006395        5.17572214681998        0.83290071988561
H           -0.84617165706527        3.03608515304192        2.78255168851821
