72
 energy: 71.900426088176 xtb: 6.6.1 (8d0f1dd)
N           -1.68550154115260        2.98380660694286        2.24408085150084
C           -1.69560259214978        2.25385659337731        1.22453122384930
C           -2.85569426798841        2.11921177750892        0.28777528043779
C           -3.38830251623701        0.69401443236091        0.35411031969098
C           -4.35785552833407        0.27147443178764       -0.55882365791667
C           -4.88840528012348       -1.00344453229507       -0.50893390605632
O           -5.83998229057812       -1.49010161046983       -1.34826446078172
C           -6.42180522467320       -0.62487105492102       -2.29295422464818
C           -4.43430084621839       -1.91175775802135        0.47713703631665
O           -5.00855068262529       -3.14162061592549        0.44811687545833
C           -4.65752377579174       -4.07328477446504        1.44382065264038
C           -3.47070839119076       -1.49281994794356        1.37471453670903
C           -2.95708463364662       -0.20294167585160        1.31371269581079
C           -2.30240976622847        2.41157198017497       -1.13223200522356
C           -1.39839772415134        1.31224066491950       -1.73430172287339
C           -0.04679105556133        1.23535188304743       -1.12622235412198
N            0.57792780247882        0.11281878935935       -0.76967176238131
C            1.96774930552370        0.13796373544570       -0.36385519164367
C            2.91323188902766       -0.22967706775495       -1.52018487629923
C            4.33607934791663       -0.22370744929541       -1.04473920963028
C            5.11880161845125        0.92289174650460       -1.17917967684504
C            6.42625750446173        0.91814806447417       -0.71266868623831
C            6.95877737762752       -0.20317850719723       -0.09732592283792
O            8.23428165031011       -0.25023642642353        0.38128569635714
C            9.06005201156271        0.87868785676309        0.24695063032468
C            6.17231108893441       -1.44067245384765        0.08868716785957
O            6.60119971704422       -2.48177678649212        0.64215018803377
C            7.56381755076171       -5.07313277887277        2.13219641268456
C            4.84518773318793       -1.34907400907486       -0.43589220798062
C           -0.04870275324156       -1.18395917642724       -0.90039758322060
C           -4.02423115339285        3.09160680160214        0.61184401094840
C           -4.65025792784423        2.77028662254947        1.96825416550885
C           -3.61222929975677        4.55997533231450        0.57797213421117
H           -4.71012666574309        0.95806450218635       -1.31181524599004
H           -6.89272798518111        0.23844879607299       -1.81186576189346
H           -7.18306799920102       -1.21773150602577       -2.79652934574972
H           -5.68972748621767       -0.27869397886376       -3.03004890374968
H           -4.89414783318992       -3.69983920742294        2.44491871368547
H           -5.25803300906079       -4.95765154189058        1.23700347866784
H           -3.59673811423743       -4.33953497290823        1.39082642511728
H           -3.11188980478550       -2.15778277558538        2.14363764178989
H           -2.23154928122146        0.10062282947428        2.05176527643512
H           -3.14595964192117        2.54986032133346       -1.80842288432233
H           -1.74302134205198        3.34657700751594       -1.09815942221427
H           -1.91900302050101        0.35763459798677       -1.65907644596471
H           -1.28698611738525        1.53973253018875       -2.80459250320103
H           -0.82434105923300        1.65730106292163        0.90361255444348
H            0.52040245698139        2.15059672451691       -1.07145986131834
H            2.12613512387740       -0.56262820075334        0.46178165937455
H            2.21395367177465        1.14264463790950       -0.01292488455415
H            2.80877012094955        0.51068313401835       -2.31898039870051
H            2.64707546049726       -1.22990869685791       -1.88730181972697
H            4.73982557990426        1.81479704988055       -1.65691443073047
H            7.01303689042599        1.82039597626967       -0.84539426402804
H            8.65609289502688        1.75541043851856        0.76863862686475
H            9.23719685458880        1.14634285096181       -0.80287329212201
H           10.00904334310533        0.61032348731282        0.70783261031501
H            8.57601074769065       -4.83009641152128        2.40249313368250
H            6.74878166703766       -4.98597965902227        2.82025600438540
H            7.30892445400106       -5.57280342873391        1.22011113672709
H            4.23441083348151       -2.24570525045319       -0.34079513981933
H           -0.25223823445963       -1.41648078840850       -1.94802071644849
H           -0.99011219182559       -1.22252444547517       -0.34431860086180
H            0.61560937158589       -1.94761141554477       -0.50387548267674
H           -4.78673033058648        2.93916141280522       -0.16102521519450
H           -3.92405541507797        2.92817816839596        2.75746885729898
H           -4.99277412511955        1.73897421303405        2.00688749593087
H           -5.50057797416688        3.42397781668181        2.14812538638483
H           -2.83357749201361        4.74281786505541        1.31010644116676
H           -3.26056603943674        4.85539568064636       -0.40626375947184
H           -4.46954397054361        5.18205784196045        0.82694270245599
H           -0.83006631842438        3.01339372158500        2.79579630250558
