72
 energy: 71.209360962220 xtb: 6.6.1 (8d0f1dd)
N           -1.71983852456783        3.01514147384468        2.25893000618185
C           -1.70531189762383        2.28702631267794        1.23968789727112
C           -2.87473357202377        2.13518939580693        0.29987702215645
C           -3.39754443704501        0.70465846359351        0.35814532492178
C           -4.36370532732235        0.27728851794219       -0.55790245579856
C           -4.89083125920424       -0.99897058939275       -0.50641199705120
O           -5.84201866145607       -1.48961212781071       -1.34664585330309
C           -6.42564124531328       -0.62867069281935       -2.29153634087917
C           -4.43691986165773       -1.90408629832150        0.48171087598214
O           -5.01105853841646       -3.13575388694093        0.45246751513471
C           -4.66024189089350       -4.06722821640987        1.44520503989625
C           -3.47765798573978       -1.48140022462773        1.38167653124415
C           -2.96841092139005       -0.18894246608888        1.32190917789083
C           -2.32259200260575        2.44007629581367       -1.11982287536101
C           -1.43905179896697        1.33365317501231       -1.72336907660015
C           -0.08666879336884        1.26761325625919       -1.12476595092906
N            0.56274139389751        0.14808631779239       -0.80765301575847
C            1.94803761592765        0.17951013364060       -0.40601360617458
C            2.89154165666809       -0.16061719607850       -1.57694634506147
C            4.30822061994716       -0.15117524482921       -1.09076639700452
C            5.10162663658289        0.98846834205165       -1.20966914407990
C            6.41104282547920        0.98221360666516       -0.74065888644323
C            6.94387989256904       -0.13565362979224       -0.12808022075658
O            8.21268128912785       -0.21047629009557        0.36106302985882
C            9.06569836715508        0.89962300717137        0.24364422717589
C            6.13381371813397       -1.34957908973114        0.04287200200202
O            6.52082307478501       -2.39337797098968        0.59243748739980
C            7.75894636518336       -5.47342363541730        2.35954381677355
C            4.80929218798196       -1.27138624010924       -0.48251976167471
C           -0.04886411065350       -1.14819155831550       -0.95625135391637
C           -4.05347929938647        3.09395408809805        0.62547329937160
C           -4.68312117205176        2.76584929031817        1.97850409316369
C           -3.66113944773136        4.57010652464732        0.58654131770644
H           -4.71710481345661        0.96382779559856       -1.30996391346736
H           -6.90195617659193        0.23338794272868       -1.81302199141016
H           -7.18541878390077       -1.22418841801628       -2.79506482373804
H           -5.69597215476201       -0.27905026552290       -3.03052505265488
H           -4.90115418120499       -3.69836206668455        2.44742091471509
H           -5.25774516002241       -4.95235428044210        1.23333458131146
H           -3.59737002853679       -4.32794845858036        1.39853232555682
H           -3.12137715042804       -2.14358390453251        2.15447130366922
H           -2.24805651386843        0.11514958837718        2.06583206705875
H           -3.16885103811605        2.59107533095484       -1.79140320485641
H           -1.76001416518049        3.37567934307652       -1.08591643328218
H           -1.95910925542808        0.37750409431772       -1.66201612263904
H           -1.30920045566441        1.57998038395853       -2.78312833999149
H           -0.83234850704794        1.70030882057364        0.90530940334538
H            0.46051318365899        2.19321124295693       -1.04022651138068
H            2.09963034873513       -0.53175487502979        0.41151364255316
H            2.19620034098152        1.17953823698255       -0.04046243256843
H            2.76887842008996        0.59449550613464       -2.35807850013479
H            2.63095509308544       -1.15257574298944       -1.96751788872760
H            4.71224296575290        1.87773617489458       -1.68420641270194
H            7.00169906279475        1.88084857081115       -0.86785580686304
H            8.67213411527480        1.77804716082850        0.76966498818614
H            9.25042792805127        1.16753797774975       -0.80414615334099
H           10.00619734400960        0.59827175068177        0.70538068163336
H            8.75239679341303       -5.18554569374556        2.61058528514071
H            6.98183179562021       -5.37440063074998        3.07137644192963
H            7.55714084789993       -5.96170557954536        1.44016588854548
H            4.21331452393549       -2.17435717769513       -0.38728407441773
H           -0.26345281459222       -1.36082679947004       -2.00591915138938
H           -0.98191911255422       -1.20693992381998       -0.39075267418667
H            0.63506528509074       -1.90520181313168       -0.58124724852522
H           -4.81401885064708        2.92733645190764       -0.14688891395329
H           -3.96377578452229        2.93396650016989        2.77210936156793
H           -5.01690619636556        1.73146497363801        2.01522043990344
H           -5.54282565097159        3.40926533672079        2.14685963121309
H           -2.88683705051293        4.76780479992393        1.32013639578133
H           -3.31140175740364        4.87074336202408       -0.39783721917332
H           -4.52920395363405        5.17716484916307        0.83131583558773
H           -0.85671205025109        3.04940414119513        2.79712952513036
