72
 energy: 14.141529553436 xtb: 6.6.1 (8d0f1dd)
N           -1.57341063452827        2.88158376079138        2.25460447233198
C           -1.60761479340327        2.19504318696047        1.20407174623107
C           -2.78315851196623        2.08433427105796        0.26691667354658
C           -3.33967615388404        0.66784494423237        0.33613065240657
C           -4.32351296412795        0.25749262621124       -0.56651918720625
C           -4.86310892289393       -1.01411803120032       -0.52014562917236
O           -5.83084817292602       -1.49275755054782       -1.35836845555107
C           -6.40469611206589       -0.61757129406320       -2.29286579741525
C           -4.41274473041919       -1.93014224192195        0.45426197046497
O           -5.00581755084715       -3.16149029323403        0.42367892928997
C           -4.66260503157313       -4.08857287182120        1.41891248079627
C           -3.44043763809119       -1.52396979579122        1.34796793361090
C           -2.91211435440274       -0.23956260438402        1.28776335319614
C           -2.23575226767475        2.34067290139056       -1.16639429967346
C           -1.30183758993095        1.23810375027964       -1.70264826116784
C           -0.02116804167410        1.20728465594864       -0.95318628382674
N            0.61923814214048        0.00945961782550       -0.64030800837298
C            1.99363920180538        0.01798365572817       -0.23865792721716
C            2.94591779413028       -0.44074063034547       -1.36993183030749
C            4.37473137028674       -0.38962859149248       -0.92128198464933
C            5.11373805474418        0.76755878217012       -1.09540995865823
C            6.42068628712192        0.78364954976670       -0.63297611112215
C            6.98632156144179       -0.31815500487768        0.02206683023161
O            8.28195320422487       -0.26528950832523        0.47277699097806
C            9.05754947313762        0.89729191806540        0.28799619455221
C            6.24568180286801       -1.54523978739719        0.24156031391892
O            6.92067341338178       -2.61703300616067        0.92076491660725
C            6.71175329403627       -3.98183526914429        1.41178237501382
C            4.94792331561765       -1.49271274427606       -0.26345316452184
C           -0.04651961139041       -1.26348805327201       -0.72541434670403
C           -3.92671298425284        3.08180551712858        0.59070809161640
C           -4.55296900668092        2.77457262946824        1.94928528962200
C           -3.47255064239471        4.53921171003800        0.55888361392461
H           -4.67619747208981        0.95117926143084       -1.31313016681540
H           -6.86460106038376        0.25018665261602       -1.80701456149246
H           -7.17711377538351       -1.19513445367491       -2.79982135509035
H           -5.67275568566525       -0.27164817471818       -3.03136494204694
H           -4.88489025284458       -3.70751520676753        2.42144555445548
H           -5.27831229001414       -4.96622670032886        1.22285078771004
H           -3.60608084396922       -4.37554121220455        1.36557382229011
H           -3.08363759034770       -2.19535438659922        2.11249281069978
H           -2.17355184571401        0.05416988170888        2.01650149982933
H           -3.07315429737850        2.44332710881606       -1.85794979770291
H           -1.68427559203854        3.28175268238312       -1.16215434731090
H           -1.82225001189797        0.28562340046756       -1.64823639700876
H           -1.10638176102402        1.43542040067932       -2.76864332470172
H           -0.74048688593717        1.65177654487515        0.77069168744421
H            0.63641859017234        2.05597991209175       -1.04480029456555
H            2.14829897849062       -0.63645150764842        0.62938606739867
H            2.25949497294200        1.03274763374517        0.06278366351104
H            2.77973725056771        0.22301700513538       -2.22193962127587
H            2.67052769202978       -1.45963708955528       -1.65135761381505
H            4.68381154060112        1.63615314949219       -1.58779161629530
H            6.99147803849438        1.69650012074651       -0.77464080446435
H            8.64145834871684        1.77715634344029        0.79307807433064
H            9.20812861343418        1.13866653240697       -0.77257426431869
H           10.02413619074428        0.66427279411214        0.73554166808362
H            7.64081340412604       -4.32417633194050        1.88785593729188
H            5.89160896901114       -4.04226158376686        2.14670902350992
H            6.45243946435523       -4.64584353351717        0.57512195860510
H            4.32897315492351       -2.36755899163601       -0.12873158125861
H           -0.23655593706981       -1.56056105861311       -1.76458853012994
H           -1.00331871472434       -1.23547100545252       -0.19381899874019
H            0.57674616307952       -2.02967794456937       -0.26467277312797
H           -4.69549404766484        2.95411070458872       -0.17967738556380
H           -3.81554977811757        2.91287232983242        2.72964881079545
H           -4.91745779675928        1.75053425372917        1.98798231992157
H           -5.38606303894825        3.44837103896694        2.13549518568137
H           -2.68380866397897        4.69333847190928        1.28609738682233
H           -3.11710523448698        4.82563863964914       -0.42669291002294
H           -4.30898951304861        5.18711941151529        0.81459050272611
H           -0.68673154818978        2.85021094719862        2.73987286414393
