72
 energy: 72.037692499887 xtb: 6.6.1 (8d0f1dd)
N           -1.68335634061875        2.98149764531336        2.26671650286811
C           -1.68802205507050        2.24639030402935        1.25029656235380
C           -2.83453994119644        2.10764140998798        0.28457117206555
C           -3.37207781122237        0.68662834416546        0.34744754817566
C           -4.34805440321941        0.26896491614034       -0.56059913062429
C           -4.88054185839307       -1.00678463491929       -0.51299193040384
O           -5.83784800320053       -1.49048034165854       -1.35311470631841
C           -6.41669343999087       -0.62311660970377       -2.29286258416315
C           -4.42769874093273       -1.91719644913118        0.46875221993181
O           -5.00734902404845       -3.14891073496670        0.44024608085179
C           -4.65928234601933       -4.07819496982617        1.43518753368814
C           -3.46066069819258       -1.50284962118036        1.36642147223927
C           -2.94235139460724       -0.21543314546258        1.30410100871775
C           -2.28050436729117        2.38936114156817       -1.14389328668501
C           -1.36689430564236        1.29459804540507       -1.73402433968471
C           -0.03062186585614        1.23600665760588       -1.10525869400887
N            0.57953008960267        0.09360845655531       -0.71648414427250
C            1.97519643122625        0.09773824351326       -0.32146418631969
C            2.92467287762113       -0.30860385799033       -1.47635017119718
C            4.35203801815074       -0.28772370719327       -1.00315917961127
C            5.12482958979474        0.86225013082335       -1.15275252105573
C            6.43503991418830        0.86638144370758       -0.69057465344433
C            6.96891659035573       -0.24589091347886       -0.06016863297604
O            8.25021788454752       -0.27543392730953        0.41253252084135
C            9.05391782708957        0.87012901315115        0.25789951035142
C            6.19897067165858       -1.48665570620651        0.13645791332613
O            6.70214860114236       -2.50723311314974        0.67012378944487
C            7.30653311069146       -4.68990567184852        1.89772982945384
C            4.87298838320516       -1.40879649013061       -0.38313113472917
C           -0.04855264199739       -1.20893046880611       -0.83842784052816
C           -3.99291721038415        3.08853210344520        0.60388894452929
C           -4.61721994074200        2.77234065913370        1.96140635895022
C           -3.56335554760603        4.55330537251158        0.57034966815663
H           -4.69799049581471        0.95784820139680       -1.31257748492413
H           -6.88312811849526        0.24246465703551       -1.81092655153124
H           -7.18177464932299       -1.20967380641693       -2.79945105934150
H           -5.68366123161520       -0.27644778275340       -3.02955499067639
H           -4.88929272985788       -3.70261638419255        2.43735361994476
H           -5.26352217844698       -4.96288171520450        1.23516723102350
H           -3.59979444691233       -4.35233700601678        1.38143956226600
H           -3.09977513195639       -2.16984401325094        2.13262284576871
H           -2.20977324638868        0.08738409626155        2.03628777708326
H           -3.12263721529704        2.51166128387779       -1.82523332635151
H           -1.72287024953732        3.32416477979017       -1.11942462365277
H           -1.87753889332646        0.34058412639400       -1.65843620401170
H           -1.23581820930819        1.50448893829452       -2.80608443034866
H           -0.81032789661514        1.65335465765518        0.93096098535538
H            0.58543556878334        2.12663038439387       -1.11344825327838
H            2.14905167467108       -0.58920527750751        0.51505730205303
H            2.22971140946651        1.10299357485804        0.01154906436950
H            2.79723421575652        0.40724283576374       -2.29106450290689
H            2.65673867462860       -1.31728426275555       -1.80876960222779
H            4.73725189819215        1.74941850601407       -1.63184571780513
H            7.01881973719565        1.76954868273752       -0.82506590012656
H            8.63779385775551        1.74355096697907        0.77353030171900
H            9.22098535450097        1.12977221058633       -0.79741387343966
H           10.01329398939338        0.62857221576385        0.71351968118194
H            8.32330287482140       -4.53133824020128        2.19840240057679
H            6.48360715537511       -4.60960974420563        2.56790158729951
H            7.03594152268560       -5.18702492834994        0.99666030706811
H            4.26429802547801       -2.29695370306286       -0.26609832750497
H           -0.24492004118939       -1.47003737642667       -1.88313095778132
H           -0.99432370951596       -1.23578143865656       -0.29064841491111
H            0.59588521560516       -1.98661097374624       -0.42611394976782
H           -4.75574232728741        2.94494866470522       -0.16908569421434
H           -3.88565122785053        2.92430968805606        2.74461400116562
H           -4.96613908046408        1.74328491057977        2.00012242470052
H           -5.46016758525901        3.43353172592151        2.14587755475929
H           -2.78197720542143        4.72018083045780        1.30206328486326
H           -3.20910636516527        4.84261866921689       -0.41426660990988
H           -4.41220598950933        5.18510761471238        0.82186683508181
H           -0.79814361457210        2.96643321433554        2.76666469198011
