  72
        -99.38986301
 N         -1.6016053342        2.5728964917        2.4133657428
 C         -1.6193161051        1.7663796403        1.4578428477
 C         -2.6355428065        1.7956328077        0.3489650900
 C         -3.4311100275        0.5027141216        0.3494851507
 C         -4.2829871298        0.2100027961       -0.7162638731
 C         -5.0496658943       -0.9446614175       -0.7351835119
 O         -5.9046848556       -1.2965787726       -1.7136185433
 C         -6.1297305123       -0.4149128807       -2.7886825413
 C         -4.9582617354       -1.8642760810        0.3480018866
 O         -5.7239514258       -2.9642575912        0.2388109762
 C         -5.7155176799       -3.9165907914        1.2773027998
 C         -4.1157260847       -1.5614972047        1.4079239599
 C         -3.3703112968       -0.3916521761        1.4103900871
 C         -1.8216144666        1.9388774865       -0.9698150418
 C         -1.1535403969        0.6752456676       -1.5375188902
 C          0.2778951969        0.3730390101       -1.0676567918
 N          0.3670692333       -0.2038182736        0.2637431843
 C          1.6684251695       -0.0242425691        0.8931521459
 C          2.7728700217       -0.8211820483        0.2820786904
 C          4.0836264243       -0.4252567852        0.0906628872
 C          4.5759456480        0.8740849357        0.3882825854
 C          5.8974696089        1.1949401994        0.2066427037
 C          6.8133175076        0.2538444625       -0.2724537266
 O          8.1167060785        0.4612631905       -0.4686595372
 C          8.6830602327        1.7191743123       -0.1739330506
 C          6.3469582893       -1.0631102893       -0.5919796556
 O          7.3003024938       -1.8982860785       -1.0457772948
 C          6.9542373749       -3.2241445325       -1.3742600623
 C          5.0217627197       -1.3727293283       -0.4188728354
 C         -0.1661686024       -1.5445004823        0.3617452719
 C         -3.6467865587        2.9747118772        0.4773547259
 C         -4.4984867670        2.8470627866        1.7381321256
 C         -2.9822926890        4.3477804392        0.4433726225
 H         -4.3495437809        0.8981531125       -1.5424964825
 H         -6.5094748347        0.5505719469       -2.4410724173
 H         -6.8839808557       -0.8968119222       -3.4077342538
 H         -5.2215877146       -0.2610466997       -3.3799571573
 H         -6.0555578394       -3.4820655925        2.2219486154
 H         -6.4109166000       -4.6938455090        0.9664931498
 H         -4.7207623140       -4.3525970826        1.4122330924
 H         -4.0388488333       -2.2310610173        2.2490500622
 H         -2.7484516873       -0.1769554864        2.2651031412
 H         -2.5080512201        2.3144429906       -1.7303953341
 H         -1.0610519023        2.7072166949       -0.8214529892
 H         -1.7917886350       -0.1918343417       -1.3718230947
 H         -1.0802834434        0.8161511591       -2.6175840897
 H         -0.8638943407        0.9828236325        1.3001631614
 H          0.8451699880        1.3092955959       -1.0603354839
 H          1.5618024888       -0.3285215544        1.9452156400
 H          1.8992234380        1.0431086176        0.8839620932
 H          0.7404008968       -0.2978428871       -1.7988027356
 H          2.5150574770       -1.8358593372        0.0156759937
 H          3.9050892477        1.6295767862        0.7631512870
 H          6.2318648608        2.1928358430        0.4416427707
 H          8.5480829216        1.9818593346        0.8789383107
 H          8.2589291978        2.5046042593       -0.8059378220
 H          9.7453395950        1.6178712134       -0.3878141788
 H          7.8788572890       -3.6940610079       -1.7041853662
 H          6.5637738096       -3.7621894478       -0.5049290746
 H          6.2210514342       -3.2563492714       -2.1859031217
 H          4.6597972513       -2.3611535974       -0.6517314216
 H          0.2470214073       -2.2168711572       -0.4002262941
 H         -1.2483504596       -1.5173113077        0.2376163391
 H          0.0521298323       -1.9521315999        1.3468916983
 H         -4.3174267852        2.9031105728       -0.3872378653
 H         -3.8720999909        2.9362580736        2.6207413308
 H         -5.0177417144        1.8919812506        1.7686025501
 H         -5.2405757836        3.6409487692        1.7612221705
 H         -2.2870080687        4.4485711000        1.2714695763
 H         -2.4547565071        4.5202900712       -0.4907155183
 H         -3.7441394084        5.1168203459        0.5435671576
 H         -0.8562153150        2.4953754979        3.0973713050
