25
 energy: -5.514502001996 xtb: 6.6.1 (8d0f1dd)
C            3.25255902688899        1.19345806545887        0.07405564482575
N            2.32844589793825        0.09922339369723        0.01422431481056
C            2.65381898468760       -1.25575868471454        0.02188219952975
N            1.44831551010852       -1.95019541284473        0.00231841151109
C            0.41838909936029       -1.07194976150278       -0.01572428232053
C            0.93585755271067        0.21502882357913       -0.00862434255263
C            0.11838377752099        1.36801015506303       -0.00609063277339
O            0.48556593075839        2.54572190404689        0.00209903019071
N           -1.27149492300272        1.03701077533052       -0.02476460414263
C           -2.21978833910926        2.14108025305016       -0.03704698598753
C           -1.82136521124737       -0.20622710186383       -0.04539912557971
O           -3.02114225777683       -0.39249431194369       -0.06786285879924
N           -0.93219332598383       -1.30455334860926       -0.03968625388159
C           -1.48495849895410       -2.63870524281613       -0.06421856532189
H            3.63918556389218        1.30743691510650        1.09292583035935
H            4.11918118242703        0.96864062463377       -0.56339469801271
H            2.71419084416666        2.10283753056273       -0.18894322842987
H            3.63943407441540       -1.66582008072878        0.01680000635777
H           -1.65497567877743        3.07174555408443       -0.01228541201268
H           -2.82914817742798        2.09800470872675       -0.94010585011225
H           -2.87780266728692        2.07205537873271        0.82943389797858
H           -1.19149833226196       -3.19672258549358        0.82688549338392
H           -1.16586082261356       -3.17256802743532       -0.96182018913273
H           -2.57071518399246       -2.53735815534534       -0.07744500219759
H            1.34222658288220       -2.95061296263147       -0.00928312527428
