25
 energy: 131.495822989371 xtb: 6.6.1 (8d0f1dd)
C            2.77070702009388        1.57894822028587       -0.06475824435588
N            2.46250162941328        0.21155280487608       -0.01385991192777
C            3.64336854585445       -0.57168097994935       -0.03241278526817
N            1.40697402158158       -2.07775315301058       -0.04902613258566
C            0.46898289758478       -1.20849943971747        0.00718534193316
C            1.00404883489778        0.11531009636399        0.06683555043140
C            0.11272342688845        1.26868442336371        0.08194983025846
O            0.45345048044201        2.43926373630557        0.12354544846073
N           -1.26218890147318        0.98739769386890        0.05011454587328
C           -2.19711293088453        2.10903083501322        0.08684601406063
C           -1.82445721444191       -0.25691138316677       -0.01469597658921
O           -3.02590355846425       -0.39798173262284       -0.06796051138899
N           -0.94770509155691       -1.33879422389499       -0.02699942622462
C           -1.63660398766600       -2.62209478168197       -0.09784897544444
H            2.85348460939872        2.09045896293154        0.88040201878582
H            4.97923227213640       -0.00174908579954        0.54324264654026
H            3.02094786283169        2.02505390703043       -0.99072711138412
H            4.15185399708492       -1.48802944906519       -0.14720079024211
H           -1.59172534458882        3.00618352371668        0.16104725587510
H           -2.80888539380293        2.16936188751110       -0.81944781174135
H           -2.87458426861089        2.00368308090245        0.93437633749959
H           -1.41427688409397       -3.24391311391922        0.76840063203374
H           -1.39418711885148       -3.15338040322498       -1.01999204425858
H           -2.70691156958163       -2.38289583201968       -0.08933093359581
H            1.15734908349159       -3.04448983866609       -0.09218440235273
