25
 energy: 12.231622427523 xtb: 6.6.1 (8d0f1dd)
C            3.25956093823746        1.26218249445036        0.07519718154351
N            2.38765623328009        0.11835226440432       -0.03559326989127
C            2.81159988847340       -1.23867676910463       -0.00485788518782
N            1.55047398155639       -1.98580364067426       -0.01103246107727
C            0.48488514488039       -1.12110136915198       -0.02874071811297
C            0.98063139874019        0.16443018390128       -0.02859913611147
C            0.12105315896481        1.29741047700564        0.00373439504519
O            0.48872426169028        2.46763201679973        0.04403188243749
N           -1.28506760345419        0.99284960819730       -0.00855861965970
C           -2.21672202678014        2.11678316777591        0.00441710670708
C           -1.81711035126112       -0.25353723044637       -0.04700569514545
O           -3.02237470055381       -0.43957028109320       -0.07271430768539
N           -0.89415902596092       -1.33682923893469       -0.04634136920342
C           -1.51740148666176       -2.63978212024044       -0.07988939768899
H            3.38205595838309        1.57252666661404        1.13243699664521
H            4.34065349912186        0.82351125267581       -0.17230792416189
H            2.78329411732371        2.09423317049652       -0.45878354173215
H            3.82804726635197       -1.65384892875077       -0.03765095878306
H           -1.62617505764538        3.03323467717206        0.03420419906487
H           -2.83537219048686        2.12045867583027       -0.89596665828794
H           -2.87683684146948        2.05583261374658        0.87202373151856
H           -1.24938943666570       -3.22399852711929        0.79790110321055
H           -1.23572633067612       -3.17280521340989       -0.98769226091329
H           -2.60183524448779       -2.48440832989245       -0.07473713381382
H            1.29669577194006       -2.97178828252553        0.04805718248533
