25
 energy: 128.473876767855 xtb: 6.6.1 (8d0f1dd)
C            2.82494502030744        1.56227272783007       -0.04094836665696
N            2.43093932863665        0.20303171925467       -0.03016464975761
C            3.52576433727373       -0.62155665821298       -0.03481396584731
N            1.43534739040495       -2.05562897381856       -0.04910068939671
C            0.48196931560235       -1.20494594328546        0.00483483818564
C            1.00510114415890        0.12656448215928        0.05431049889103
C            0.12136663966208        1.27633260046973        0.09147640491672
O            0.45951938457242        2.44962517775505        0.13867633715204
N           -1.25101860250495        0.99072667651636        0.04633268555107
C           -2.19350464075390        2.10984312211016        0.07680516263294
C           -1.80875252102216       -0.25817974733433       -0.01909619674892
O           -3.01102632636091       -0.39374467707632       -0.08295001460826
N           -0.93333551327745       -1.34125036912688       -0.02380138644800
C           -1.62015695659657       -2.62335308621118       -0.09539238098721
H            2.94796280000984        2.02805987654820        0.92206386346343
H            4.87967480576765        0.09251929766254        0.49525041840174
H            2.96532846488425        2.06069563058668       -0.95253621769936
H            4.13565250679204       -1.47859540072739       -0.15279556965509
H           -1.58997005988920        3.00819018734242        0.14494330409648
H           -2.81291759926613        2.17291957896299       -0.82552838288379
H           -2.87405068591975        2.01580592314774        0.92599402399395
H           -1.38861450236270       -3.24376606614344        0.76811995628761
H           -1.37173755531180       -3.15257586109082       -1.01731296894652
H           -2.69215363907250       -2.39478507604789       -0.07830778224930
H            1.20966148439687       -3.03002813087107       -0.08090038401333
