25
 energy: 121.263723231279 xtb: 6.6.1 (8d0f1dd)
C            2.99226422829448        1.44346892023372       -0.00741694438060
N            2.38054521925288        0.18200532008415       -0.05967708448636
C            3.03235886240885       -1.01424853702208       -0.13904725510688
N            1.60651495674241       -1.95524193975298       -0.06870583315951
C            0.50261687918436       -1.15317068132045       -0.00041386058124
C            0.97625391666347        0.14230435319689        0.05832298500029
C            0.10723004208457        1.29049979950611        0.10037980810136
O            0.45844028085312        2.45306295205438        0.14079202831255
N           -1.25634637183893        0.99034964413057        0.04113992716901
C           -2.20496927228147        2.11359443511884        0.06603539915144
C           -1.79974082874075       -0.25016512678982       -0.02169586745772
O           -2.99911240379731       -0.41126004953296       -0.08320224763703
N           -0.89790456485070       -1.35633475582819       -0.02833829154555
C           -1.60103395389264       -2.62655043618953       -0.09008871046336
H            3.00771395533034        1.95613976334194        0.97541849964731
H            4.93440486494380        0.31189351310103        0.50173549861327
H            2.92224430767356        2.09062958988599       -0.85189620249669
H            4.06501001054820       -1.32369280886975       -0.10891353586231
H           -1.59319498909860        3.00886355564602        0.12200911649108
H           -2.82080896107880        2.17121501673877       -0.83669759127557
H           -2.87909185058649        2.03002259761843        0.92125028073438
H           -1.36895292964595       -3.24712309178464        0.77162682120803
H           -1.35867289299131       -3.15813780626974       -1.01175128253287
H           -2.67914382680796       -2.39975432657411       -0.05822424155485
H            1.36851709412471       -2.95274868540443       -0.08013338771708
