25
 energy: 135.679633913550 xtb: 6.6.1 (8d0f1dd)
C            2.11755747964178        1.83181877943740       -0.00803088347472
N            2.12237315473185        0.44694634111786        0.04409713251111
C            5.07366592583200       -0.73963886153139       -0.23641722778083
N            1.12995335650989       -2.24237614937983       -0.01462119166080
C            0.32624003746257       -1.27059322544891        0.00097025996335
C            0.86834836922691        0.06124495246218        0.04928339909230
C           -0.02571478340621        1.14797260380883        0.05382260470870
O            0.67120469569947        2.30576406906497        0.05390335075063
N           -1.37107265949815        1.03237163406693        0.05551918164550
C           -2.28305645378311        2.18040691244456        0.09813286092574
C           -1.94850888757306       -0.24001657120538       -0.01392474136387
O           -3.15668015003789       -0.34381805276186       -0.04703569376446
N           -1.09022386042264       -1.31784034734479       -0.03948788420374
C           -1.71612749093935       -2.63074837456695       -0.10993318299975
H            2.41352550867057        2.33908758830532        0.85799219242708
H            6.24230781955959       -0.79136150494696       -0.18754132676244
H            2.67904150240637        2.26430301218501       -0.87834444593520
H            4.80245961533086       -1.80246478277077       -0.08652296289576
H           -1.68209499909794        3.07925052041934        0.17084634822340
H           -2.90126480324324        2.19411917488944       -0.79857169890713
H           -2.93978238114517        2.08961584783467        0.96691750779991
H           -1.48025153050001       -3.23630162655976        0.76860349390323
H           -1.41083258023195       -3.16675722104774       -1.01282065442563
H           -2.78813049745584       -2.47221936113609       -0.13596328125755
H            0.73713871724300       -3.16923973806140       -0.05784702143571
