25
 energy: 161.045960063716 xtb: 6.6.1 (8d0f1dd)
C            2.49223558441291        1.65732845307971       -0.12477465848767
N            2.18257764466609        0.40192421504307       -0.04346320359027
C            4.49887328923875       -0.62581270932800       -0.12180746498938
N            1.27969941436314       -2.15288701789370       -0.02121128581318
C            0.39042406709438       -1.23399791483664        0.01491289538236
C            0.91536072181570        0.08502055619397        0.08745777663433
C            0.00342370461734        1.24243158520866        0.07417695940233
O            0.53757242951141        2.37255157941730        0.06808236079480
N           -1.33310540591567        1.01281829940890        0.06074281083236
C           -2.24983901350550        2.13940743613543        0.10915636091856
C           -1.89661342079849       -0.25771110687061       -0.00560999641105
O           -3.09852384723559       -0.39035594431057       -0.04107339346262
N           -1.01758794793329       -1.32444995421093       -0.03702504542761
C           -1.69057203825745       -2.61905275380002       -0.10622136435163
H            2.52194285359492        2.25716853391978        0.74017974128799
H            5.62010847972956       -0.49859225210350        0.48454056755170
H            3.00749494825821        2.00728228014671       -1.03061769706749
H            4.59182488682331       -1.67044050227800       -0.12106413301867
H           -1.64616717544518        3.04139596340994        0.19410194487608
H           -2.84455176057636        2.15645867795611       -0.80034433953285
H           -2.90883898994320        2.02749384560686        0.96770729246413
H           -1.50615124512489       -3.24124722484743        0.77255119375219
H           -1.46733156436651       -3.16972694716664       -1.01915499627029
H           -2.75342898262009       -2.37815150432066       -0.13221554941344
H            0.95839685614239       -3.09599236812714       -0.09616345940599
