  25
        -42.16115062
 C          3.5915667846        0.7501183895        0.2511704466
 N          2.5379240696       -0.2169427461        0.1173843032
 C          2.6691106032       -1.5375206154        0.0466770931
 N          1.4463913304       -2.1202175490       -0.0424015469
 C          0.5130964904       -1.1331803759       -0.0218660038
 C          1.1940125675        0.0858297754        0.0780788050
 C          0.5207371692        1.3147185794        0.1495010748
 O         -2.5181532048        2.6057343387       -0.7192504383
 N         -0.8080025741        1.1826029249        0.1294488662
 C         -1.6049804688        2.4263699230        0.2887737615
 C         -1.5678753708        0.0055504540        0.0464496692
 O         -2.7611517392       -0.0165922135        0.0741855341
 N         -0.8240311406       -1.1961762255       -0.0686545081
 C         -1.5388267924       -2.4535235386       -0.1643476259
 H          4.0378843291        0.6920526228        1.2451330337
 H          4.3676237351        0.5741893093       -0.4928134495
 H          3.1634287143        1.7406743627        0.1121620603
 H          3.5969484360       -2.0732110883        0.0618102332
 H         -2.1060977676        2.9175300512       -1.5380992743
 H         -2.1755827258        2.3367083115        1.2239262957
 H         -0.8642180607        3.2310434196        0.3731786199
 H         -1.3409099377       -3.0732316904        0.7111071569
 H         -1.2520053285       -2.9839126810       -1.0727080678
 H         -2.6030674892       -2.2239712476       -0.2039965801
 H          1.2828892645       -3.1154098218       -0.1038307453
