25
 energy: 0.000000000000 xtb: 6.6.1 (8d0f1dd)
C            3.23720163006194        1.16630919979326        0.08434469647475
N            2.29877817382611        0.07527477071623        0.03981603040599
C            2.58028210190900       -1.21425402444508        0.03006176031096
N            1.43813958087363       -1.93419271955128        0.00098261760884
C            0.39035688448383       -1.05887472636071       -0.00790371836672
C            0.93510056364412        0.21347819449412        0.01709077491437
C            0.09450143893243        1.40504303904423       -0.00410947031874
O            0.49712751527797        2.54126714362870       -0.00342325688240
N           -1.25076640035757        1.06271879480407       -0.03085478223738
C           -2.21907211982101        2.15522099834493       -0.05001256985998
C           -1.81739487048744       -0.20012725993278       -0.04692818574614
O           -2.99983886758376       -0.37846417018721       -0.07008878229737
N           -0.92618586207120       -1.30210215599479       -0.03682761578324
C           -1.46982264913417       -2.64643102187190       -0.06029820460571
H            3.71247264356769        1.21471455160235        1.06488849150277
H            4.00791497605742        1.03430808813993       -0.67357694370751
H            2.69910007168542        2.09770118228144       -0.09130154882931
H            3.56654120610678       -1.63682992603973        0.04233140067262
H           -1.67107961066214        3.09322851271934       -0.02552706933167
H           -2.82428953597071        2.09428624779827       -0.95318082946668
H           -2.87644029173232        2.07745725625962        0.81450067533302
H           -1.17061996399332       -3.19584890659852        0.83242232437030
H           -1.14560257411436       -3.17511610292205       -0.95688275822323
H           -2.55549792440841       -2.55659984320617       -0.07459039797972
H            1.38130855184625       -2.94313852034425       -0.01389874181052
25
 energy: -2.140008356306 xtb: 6.6.1 (8d0f1dd)
C            3.25731367714604        1.16506357863681        0.08275219436503
N            2.31513404758269        0.08853528331738        0.03863472703180
C            2.60756811112663       -1.23853654989689        0.02629984020858
N            1.43705018708016       -1.94675743328196        0.00176005961618
C            0.40470414108778       -1.06237406251835       -0.00040714050145
C            0.93521207107409        0.21721434935641        0.02351289339273
C            0.09930708370973        1.39107700583793        0.00688411119150
O            0.50274114076866        2.55418127995242        0.01245524911700
N           -1.27118794870339        1.05432361682715       -0.04779251722451
C           -2.24721782383759        2.15925895626812       -0.08373166437535
C           -1.82011153679987       -0.20581827068386       -0.03991170840433
O           -3.01475703126961       -0.39687066745309       -0.05188033749504
N           -0.92570875643955       -1.30598347296097       -0.02393896682083
C           -1.45696886876201       -2.65169394081916       -0.04832092640137
H            3.73643581299184        1.21132368648098        1.06421609389859
H            4.02569484334037        1.02302309923028       -0.67897415368867
H            2.71682309798977        2.09197218950690       -0.09645589732673
H            3.58639257826251       -1.66357486672692        0.03032621971596
H           -1.66898657121620        3.07809847190393        0.03678551856088
H           -2.92558720034173        2.29108094462347       -0.98611551182339
H           -2.93555648170417        2.03867127741347        0.74237108929231
H           -1.15212267231393       -3.20429110630777        0.84263940062040
H           -1.12512010253446       -3.18004822053623       -0.94459132817939
H           -2.54253472622674       -2.56793227199363       -0.06419679790074
H            1.37369759592517       -2.95091427400441       -0.01528655072188
25
 energy: 7.807187497375 xtb: 6.6.1 (8d0f1dd)
C            3.28294609957251        1.15337301181560        0.07885516457577
N            2.32739634939127        0.09630916524750        0.03637326990804
C            2.62833413978154       -1.26035190456611        0.02037382111940
N            1.43446681474527       -1.95402260591999        0.00246110445301
C            0.41839739826215       -1.06581754690734        0.00990547413565
C            0.93099700713965        0.22193534633293        0.03122586147037
C            0.10025463392393        1.37448412992189        0.01048104058968
O            0.49887627204276        2.55154214012095        0.03847510113719
N           -1.30540321001033        1.05507716233167       -0.08959663308460
C           -2.28384057848229        2.17779773801239       -0.12064327547913
C           -1.82114967624759       -0.20972669879173       -0.03415832633070
O           -3.01833127829702       -0.42518553996352       -0.01692086623162
N           -0.92407867617393       -1.30668063025535       -0.00314526504185
C           -1.43633443291771       -2.65772612103084       -0.02895607463668
H            3.76981632357082        1.20156215981794        1.05896729314498
H            4.05093619135638        1.00130938670116       -0.68453333501583
H            2.74995173650998        2.08255929653759       -0.10433959438309
H            3.60117027573885       -1.68674908544981        0.01104310314722
H           -1.67224938767033        3.06770478886486        0.14093676246012
H           -3.01228001670674        2.55030423721028       -1.03496506514292
H           -3.03663111864065        1.96498579869133        0.63572396016196
H           -1.12498104481998       -3.21445464075601        0.85928337497339
H           -1.09463540349813       -3.18492546602896       -0.92481454870446
H           -2.52235352109716       -2.58784222599628       -0.04722399871023
H            1.37093977046297       -2.95643329376818       -0.01777445236837
25
 energy: 17.199762263144 xtb: 6.6.1 (8d0f1dd)
C            3.30590699746891        1.13546672561846        0.07582349450520
N            2.33385763960436        0.09346270327767        0.03399954851662
C            2.63352875576212       -1.27210764414524        0.01421873190484
N            1.43382195910038       -1.95664493758916       -0.00017368638580
C            0.42508089034991       -1.06651081087449        0.01654908265567
C            0.93036860396552        0.22559264284054        0.03640346919268
C            0.10111826718378        1.37443953938432        0.01097889547977
O            0.49601630469832        2.55124447097198        0.06340234190103
N           -1.32734482052128        1.07018422370717       -0.12364539773863
C           -2.31627736869738        2.20142949678267       -0.14171905068931
C           -1.82132410168919       -0.20489794165829       -0.02416647829730
O           -3.01576758918674       -0.44097786668848        0.01854553187709
N           -0.92070758525624       -1.30061721252287        0.01518007799396
C           -1.41845725212643       -2.65813964335353       -0.01327764971341
H            3.79798040111281        1.18146663651601        1.05445466612650
H            4.07353707058067        0.97242319951694       -0.68694131316697
H            2.78895978897170        2.07356170498153       -0.10936525794028
H            3.60542475221901       -1.70129427046831       -0.00990083703235
H           -1.71522342577258        3.06742363568135        0.22455495725625
H           -3.04636478600688        2.70911243598089       -1.06801369194064
H           -3.13103497464397        1.89791069361493        0.53316845936219
H           -1.10049356586382       -3.21669070818289        0.87228518085952
H           -1.06786830667822       -3.18114207417271       -0.90935133097506
H           -2.50530396514333       -2.60539980523011       -0.03238735863153
H            1.37278097850480       -2.96026659181644       -0.02358848897276
25
 energy: 20.759725120578 xtb: 6.6.1 (8d0f1dd)
C            3.31944161170365        1.12196098295857        0.07614498317171
N            2.33663293371077        0.08811193679186        0.03215707755719
C            2.63106300746160       -1.27429975288312        0.01199344461551
N            1.43465518005097       -1.95595622349015       -0.00327767292911
C            0.42655476403697       -1.06530257664169        0.01718240808693
C            0.93250074952663        0.22743871724277        0.03676793642001
C            0.10380672141856        1.38044123422877        0.00782375891564
O            0.49471221002713        2.55174336624186        0.07766787798970
N           -1.33365155952074        1.08228861260417       -0.14143450912545
C           -2.33506689479869        2.21244802510113       -0.14773619836838
C           -1.82099413686727       -0.19797988769260       -0.01475310923729
O           -3.01117365456850       -0.44335419066687        0.04502901881195
N           -0.91821428407077       -1.29317453419857        0.02408801047885
C           -1.40945658548989       -2.65464801405981       -0.00688969759837
H            3.81108279740154        1.16383020903307        1.05512069035532
H            4.08718465420419        0.95085613370528       -0.68458884320660
H            2.81558236156438        2.06734976286311       -0.11029097351529
H            3.60367771892007       -1.70532447494975       -0.02269239998750
H           -1.76251416112251        3.05833235565914        0.25851068886225
H           -3.06470684020491        2.76663230004919       -1.07250586097785
H           -3.16796833484360        1.86806224078829        0.46818944875816
H           -1.08737449388604       -3.21270163686034        0.87749747979466
H           -1.05314122279019       -3.17310971004932       -0.90344713817797
H           -2.49651397669661       -2.61365288238623       -0.02624090779444
H            1.37609610276951       -2.96096339121680       -0.02728161675236
25
 energy: 20.739771346811 xtb: 6.6.1 (8d0f1dd)
C            3.32239820080789        1.11718484019108        0.07348838838183
N            2.33693710529420        0.08471982245579        0.02844458379603
C            2.62654709882222       -1.27080193929096        0.01365748512185
N            1.43557538417428       -1.95404680842668       -0.00309449110166
C            0.42485596130255       -1.06408983425085        0.01372221152614
C            0.93457927577238        0.22780293026345        0.03313100757165
C            0.10773219471708        1.38593084991875        0.00477985083962
O            0.49479789664268        2.55272644168448        0.08465309651644
N           -1.33020589527814        1.08695720484295       -0.15059638369064
C           -2.33851491892735        2.21509222606126       -0.14658532646562
C           -1.82113968244245       -0.19250793948653       -0.01485434937801
O           -3.00815213116048       -0.43831083656166        0.05699469479099
N           -0.91803363252436       -1.28801628853755        0.02474855496665
C           -1.40938275327771       -2.65067905555002       -0.00308813121913
H            3.81116178167028        1.15795831085149        1.05350605262234
H            4.09005312147334        0.94206147202475       -0.68564600365332
H            2.82351823473371        2.06461740698968       -0.11490544644400
H            3.60006949996814       -1.70209802640703       -0.02736028710454
H           -1.78526100128545        3.04528279687162        0.30350845163034
H           -3.04843794278312        2.78183420302287       -1.07845193967472
H           -3.18190890533534        1.83483880284424        0.42219400095095
H           -1.08612186642537       -3.20520142564548        0.88281999139776
H           -1.05158314282207       -3.16903548012410       -0.89854132700274
H           -2.49599245989844       -2.61344983399419       -0.02213022324183
H            1.37872324471776       -2.95974123757543       -0.02336056498908
25
 energy: 19.259489095817 xtb: 6.6.1 (8d0f1dd)
C            3.32091587554947        1.11792090936137        0.07192670918574
N            2.33718995393007        0.08358088032274        0.02592557929504
C            2.62421120648073       -1.26789284287201        0.01722219976057
N            1.43571090335219       -1.95299319512417       -0.00243207852818
C            0.42320202629270       -1.06319557083522        0.01030098626304
C            0.93603491230189        0.22780975057916        0.02917082175434
C            0.11110548903602        1.38834865025769        0.00157750171935
O            0.49614334425869        2.55410776686752        0.08662223385072
N           -1.32419225925954        1.08739430461542       -0.15287334307426
C           -2.33470568001896        2.21471277983558       -0.14260826259331
C           -1.82097964130152       -0.18953772870665       -0.01447747687647
O           -3.00694719404970       -0.43324678219328        0.06067979926873
N           -0.91866707611388       -1.28595830074778        0.02281634185968
C           -1.41240422073422       -2.64843727948250       -0.00270592457099
H            3.80782566374348        1.15937207085807        1.05257787739993
H            4.08887635157613        0.94285213827708       -0.68640804669643
H            2.82099485236049        2.06424890357106       -0.11733678364551
H            3.59782632004433       -1.69976149004117       -0.02812417010329
H           -1.79629131598420        3.03487152903192        0.32382158161956
H           -3.02876193548081        2.77359689868715       -1.07437221839070
H           -3.17920078669565        1.81945588010644        0.39953297132604
H           -1.08968146364816       -3.20140598386906        0.88426252166399
H           -1.05564589188159       -3.16837750561374       -0.89731052439037
H           -2.49871133262632       -2.60977162431629       -0.02111075622265
H            1.37836656680465       -2.95866555639741       -0.01964364372729
25
 energy: 18.310450098577 xtb: 6.6.1 (8d0f1dd)
C            3.31926101371511        1.11990421629619        0.07003985492197
N            2.33756070303398        0.08395971704178        0.02441701835281
C            2.62428515668891       -1.26749578456230        0.02064296964767
N            1.43531857137119       -1.95296987443051       -0.00115049928547
C            0.42281434514554       -1.06272478072337        0.00907296124090
C            0.93641507445653        0.22803454437176        0.02714405955321
C            0.11244811077617        1.38850143428836        0.00035795164782
O            0.49710054559471        2.55520119525578        0.08515229713725
N           -1.32096112464087        1.08691849611267       -0.15434591622624
C           -2.33155325857207        2.21476958406844       -0.14156007851579
C           -1.82050193879089       -0.18837431770968       -0.01566193378527
O           -3.00696162057289       -0.43091665232181        0.05952910828732
N           -0.91910286604567       -1.28572164155481        0.02164231200289
C           -1.41458863243307       -2.64762711435209       -0.00172303606792
H            3.80610908960115        1.16243240121963        1.05066124241363
H            4.08735998430009        0.94565484327894       -0.68840260749565
H            2.81699214328837        2.06485701089430       -0.11944492091887
H            3.59737470455349       -1.69999162729844       -0.02876731227355
H           -1.79811837801671        3.03114461170329        0.34418599695252
H           -3.01090578198809        2.77305263146564       -1.07468960370796
H           -3.18234016591131        1.80497043766546        0.38636516340345
H           -1.09253106719764       -3.19997974115631        0.88592941321583
H           -1.05905688257845       -3.16943261375751       -0.89571757164087
H           -2.50091060996061       -2.60677921572101       -0.01975102041496
H            1.37670755211928       -2.95835915790250       -0.01689195229739
25
 energy: 17.690668203192 xtb: 6.6.1 (8d0f1dd)
C            3.31825780106037        1.12137042022228        0.07004839596250
N            2.33766357325491        0.08458312150360        0.02446988805615
C            2.62500925581273       -1.26802823003192        0.02379217319357
N            1.43487261027895       -1.95314791543317       -0.00045353911467
C            0.42294920945551       -1.06242964542886        0.00905974071752
C            0.93620369573891        0.22825742512162        0.02661934930567
C            0.11174397461650        1.38772437634609       -0.00036941188503
O            0.49673647588812        2.55544291467991        0.08199647227902
N           -1.32024956865197        1.08622939099016       -0.15431137329987
C           -2.33068867722762        2.21452848013515       -0.14145717715187
C           -1.82019615293977       -0.18853137954818       -0.01577568483808
O           -3.00735802750102       -0.43085936712872        0.05739252464460
N           -0.91919099107576       -1.28631587785376        0.02101652457486
C           -1.41522962755576       -2.64780395592829       -0.00201153700036
H            3.80570584303847        1.16422809452980        1.05043142839063
H            4.08657404610556        0.94823456396652       -0.68865407373521
H            2.81440019341960        2.06564508877283       -0.11899381526423
H            3.59749498317399       -1.70102498342179       -0.02995680822311
H           -1.79819909147532        3.02836035766026        0.34508493198269
H           -3.00509411699086        2.77089434196159       -1.06990926090393
H           -3.17865045321730        1.80633143572094        0.38585588938789
H           -1.09360676969059       -3.20054492814123        0.88561687925221
H           -1.06029048128827       -3.17022707787169       -0.89599968477276
H           -2.50169924736656       -2.60558500473054       -0.02002891933031
H            1.37505621107343       -2.95830304392066       -0.01642901608060
25
 energy: 17.328299563706 xtb: 6.6.1 (8d0f1dd)
C            3.31809008391720        1.12187001292009        0.07019976813639
N            2.33766658701671        0.08506541949451        0.02500280014059
C            2.62590759429387       -1.26902529687714        0.02768559460960
N            1.43449157210741       -1.95336367181557        0.00029147633802
C            0.42340917352540       -1.06216164605641        0.00964595529595
C            0.93595457121419        0.22845691848370        0.02680734201142
C            0.11047474276376        1.38703301417226       -0.00070608170679
O            0.49638918571822        2.55540159793319        0.07846977571983
N           -1.32048472272481        1.08623705432756       -0.15455991498829
C           -2.33156604739613        2.21489872064971       -0.14236977266034
C           -1.81967655014358       -0.18864894763524       -0.01634760866001
O           -3.00747091503175       -0.43111386165921        0.05491825646962
N           -0.91900444629845       -1.28677222183572        0.02085711936542
C           -1.41499840163283       -2.64797040977535       -0.00193035906283
H            3.80642903685789        1.16474030208739        1.05021838911268
H            4.08630750398302        0.94927943064992       -0.68898822892136
H            2.81365260968836        2.06602873625281       -0.11846209194651
H            3.59774372814611       -1.70219053188924       -0.03294673982935
H           -1.79890344950307        3.02701924316681        0.34535708278448
H           -3.00115558292516        2.77260058442916       -1.06549499607815
H           -3.17940867499689        1.80703535825529        0.38617093844578
H           -1.09344883498313       -3.20098171813251        0.88559139627536
H           -1.06034127892822       -3.17067748263076       -0.89597848151850
H           -2.50160003972442       -2.60534779577788       -0.01995531466605
H            1.37375722299257       -2.95838420656545       -0.01644240851970
25
 energy: 17.157524153957 xtb: 6.6.1 (8d0f1dd)
C            3.31829968676744        1.12154584882432        0.07044901122829
N            2.33729277413368        0.08525257310164        0.02566544477205
C            2.62613933001334       -1.26937038862860        0.03160073475016
N            1.43434085955923       -1.95333954762251        0.00079952803136
C            0.42357640807412       -1.06203792798613        0.00988475286009
C            0.93570541624324        0.22848676380920        0.02699505711748
C            0.10917947716037        1.38687023415420       -0.00131368968369
O            0.49595617732198        2.55514666798437        0.07663123877246
N           -1.32112959280030        1.08648666351755       -0.15551127178464
C           -2.33316942020501        2.21528230537061       -0.14401822270254
C           -1.81955235098866       -0.18884759404846       -0.01736844865285
O           -3.00749918425991       -0.43150093073157        0.05346324494905
N           -0.91888466918220       -1.28689609557509        0.02070387086732
C           -1.41445241414965       -2.64808702332181       -0.00171341031621
H            3.80709710931382        1.16425930601852        1.05024302451287
H            4.08628928420526        0.94864540917411       -0.68900101923118
H            2.81442428184020        2.06603632331311       -0.11825235770000
H            3.59764889682219       -1.70210234007043       -0.03664517308350
H           -1.79934191536738        3.02634406197556        0.34628135472426
H           -2.99954911446989        2.77504316788543       -1.06282117965969
H           -3.18030853316029        1.80784045566441        0.38687681565819
H           -1.09260329494219       -3.20085683265297        0.88584119181426
H           -1.05972331942882       -3.17082364601701       -0.89574062162595
H           -2.50107608881419       -2.60596290711527       -0.01968590239983
H            1.37355486424990       -2.95838594485122       -0.01633007707044
25
 energy: 17.059421051624 xtb: 6.6.1 (8d0f1dd)
C            3.31858417511146        1.12100471984956        0.07061945772149
N            2.33692433633157        0.08524117103380        0.02605965678340
C            2.62593646931772       -1.26918774284591        0.03485597145280
N            1.43434717844127       -1.95322037274308        0.00088114320936
C            0.42348635013039       -1.06202579871732        0.00954411197795
C            0.93563891196163        0.22841655658738        0.02697613278847
C            0.10865140549072        1.38708764627418       -0.00168144605486
O            0.49592182390917        2.55491578616224        0.07701576951696
N           -1.32141569405219        1.08675215357367       -0.15623198417470
C           -2.33417411554102        2.21561433493384       -0.14511494365859
C           -1.81968286559608       -0.18888996639934       -0.01785894460582
O           -3.00745721258310       -0.43152298288410        0.05365049115606
N           -0.91891270200026       -1.28667910488033        0.02052826538314
C           -1.41413597668844       -2.64802788173801       -0.00164949438174
H            3.80733899345878        1.16359578019199        1.05039190796127
H            4.08640175094202        0.94744874075589       -0.68882241535559
H            2.81551743781439        2.06583463177508       -0.11836721333888
H            3.59734063986288       -1.70127045285979       -0.04007023360401
H           -1.79990871571518        3.02612186529007        0.34599875009294
H           -2.99881160025449        2.77598345808609       -1.06173012425126
H           -3.18148645385911        1.80789265664401        0.38718921549523
H           -1.09191046028847       -3.20046759605987        0.88595466395952
H           -1.05926592923614       -3.17068363097164       -0.89563649067685
H           -2.50070933166715       -2.60655706262737       -0.01946297769715
H            1.37399625264588       -2.95834830625908       -0.01600537355184
25
 energy: 16.964151544769 xtb: 6.6.1 (8d0f1dd)
C            3.31877367370696        1.12044156239311        0.07081577383395
N            2.33641577597471        0.08521656164356        0.02635935689018
C            2.62545595025959       -1.26862130441030        0.04019407904898
N            1.43440383108981       -1.95305240623790        0.00073934383993
C            0.42317780400734       -1.06215199791102        0.00838825815947
C            0.93555589175051        0.22824565427077        0.02652808958794
C            0.10832741470613        1.38740411070585       -0.00221342567515
O            0.49577235252023        2.55453401953056        0.07879956465687
N           -1.32167344151272        1.08673941430081       -0.15752391303268
C           -2.33490501812058        2.21582366218581       -0.14651489960562
C           -1.82013862255587       -0.18909067454121       -0.01820886813185
O           -3.00750187617548       -0.43158033151086        0.05501050795967
N           -0.91908326981285       -1.28632065359741        0.02010187421863
C           -1.41395566764985       -2.64798084123906       -0.00173007924464
H            3.80713518882885        1.16305078945513        1.05070273198226
H            4.08653199042984        0.94591187701661       -0.68835429923564
H            2.81670095599183        2.06560648630761       -0.11872949285078
H            3.59671251583834       -1.69963162373949       -0.04533352701246
H           -1.79984512296721        3.02593394099579        0.34581842136388
H           -2.99842415542150        2.77626702196600       -1.06161246290382
H           -3.18158469522636        1.80829230239984        0.38773725356129
H           -1.09129103412979       -3.19993124662891        0.88599471653013
H           -1.05885981372583       -3.17053851694668       -0.89561346263284
H           -2.50043981221436       -2.60723731540856       -0.01931447757319
H            1.37495385234458       -2.95830188882812       -0.01500716758721
25
 energy: 16.912876494702 xtb: 6.6.1 (8d0f1dd)
C            3.31869365922810        1.12050914088479        0.07089469199994
N            2.33643603487476        0.08520949502485        0.02628747536408
C            2.62542307625085       -1.26854228498234        0.04419011562426
N            1.43438432238707       -1.95309118534429        0.00055103454518
C            0.42310346473425       -1.06224175459050        0.00738049286389
C            0.93561780328619        0.22818090918672        0.02597844383217
C            0.10863521253006        1.38743417894382       -0.00224369023571
O            0.49570303689491        2.55443890272549        0.08003590967050
N           -1.32153006337223        1.08651288995202       -0.15794676011870
C           -2.33451100171491        2.21579676429336       -0.14652968560358
C           -1.82028208700156       -0.18911216530503       -0.01794404383335
O           -3.00749896917401       -0.43145433349106        0.05622700382836
N           -0.91912635434995       -1.28615644480943        0.01970110118220
C           -1.41410026858631       -2.64792577055274       -0.00195503521345
H            3.80684112386426        1.16329516122492        1.05086640454750
H            4.08656886659453        0.94584290467827       -0.68810089102011
H            2.81658496503908        2.06558313667965       -0.11884954225966
H            3.59632170018579       -1.69914761334115       -0.04884244655230
H           -1.79956863264619        3.02601863658616        0.34492476890559
H           -2.99832159430625        2.77528129839862       -1.06207108596503
H           -3.18133427427290        1.80840184501975        0.38802607675515
H           -1.09146606534111       -3.19980935435134        0.88583094324065
H           -1.05898693593733       -3.17054069168477       -0.89576339900811
H           -2.50057507973113       -2.60710191126494       -0.01948545558806
H            1.37520272850029       -2.95835315170892       -0.01412853081410
25
 energy: 16.810660208318 xtb: 6.6.1 (8d0f1dd)
C            3.31827880076865        1.12093508854028        0.07131628898660
N            2.33661583516478        0.08517451130530        0.02630813981094
C            2.62580315889061       -1.26889814983694        0.05870978129654
N            1.43422217444540       -1.95325057803820        0.00053107798870
C            0.42315069321423       -1.06237800493095        0.00474597217083
C            0.93573879770179        0.22806810438662        0.02424910117639
C            0.10907410748518        1.38721152445971       -0.00267883364734
O            0.49488369074392        2.55424929740321        0.08129169221609
N           -1.32145263284599        1.08582621918802       -0.15933264744957
C           -2.33358840929304        2.21550972725654       -0.14658444655543
C           -1.82041683020285       -0.18926254040815       -0.01761065782014
O           -3.00746359778468       -0.43148941453466        0.05833245658924
N           -0.91897304306137       -1.28605836430503        0.01834799808687
C           -1.41430512571147       -2.64794224229736       -0.00252925801749
H            3.80632641186651        1.16421210538317        1.05129841404844
H            4.08648822640626        0.94642102127871       -0.68747863609302
H            2.81568156377009        2.06567384022470       -0.11874212044900
H            3.59506698808556       -1.69848039665777       -0.06136402910913
H           -1.79810817269323        3.02606528072478        0.34430837123625
H           -2.99855603490332        2.77364209553686       -1.06324879495993
H           -3.17950144864879        1.80940337149545        0.38908066383003
H           -1.09197035780249       -3.19959260292053        0.88552572988162
H           -1.05919393159838       -3.17091624574930       -0.89605393519185
H           -2.50081874340394       -2.60660205325082       -0.02007639020629
H            1.37523254734281       -2.95849299208175       -0.01131204167201
25
 energy: 16.703386317724 xtb: 6.6.1 (8d0f1dd)
C            3.31786285117256        1.12136536030840        0.07172786197438
N            2.33678948067242        0.08514838097652        0.02632194297158
C            2.62616768263239       -1.26923720040676        0.07295318377186
N            1.43406155539709       -1.95340883576386        0.00050165945688
C            0.42319015488973       -1.06251746397607        0.00213951472288
C            0.93584999473645        0.22795719029345        0.02253800476012
C            0.10950828693325        1.38698716591856       -0.00311145297128
O            0.49406725899405        2.55405956253465        0.08256556305452
N           -1.32137880336352        1.08513027701102       -0.16072500496387
C           -2.33266991855495        2.21522063717331       -0.14665561583075
C           -1.82056228770392       -0.18942085234133       -0.01727497635668
O           -3.00743844115138       -0.43152902018535        0.06043381884568
N           -0.91883217157230       -1.28596169180569        0.01701901061066
C           -1.41451630933985       -2.64796204570777       -0.00309514410978
H            3.80580202023155        1.16513395030191        1.05172626232696
H            4.08640726578279        0.94699955665084       -0.68686012914177
H            2.81477925643030        2.06576919569661       -0.11864497964457
H            3.59384958001302       -1.69782112215338       -0.07363442098578
H           -1.79663541276889        3.02609574835414        0.34371869005204
H           -2.99877902519501        2.77201617117490       -1.06442402083408
H           -3.17763298934116        1.81041687112260        0.39013050712769
H           -1.09248020751354       -3.19938519896271        0.88522547670854
H           -1.05940259072612       -3.17128694805582       -0.89633995770693
H           -2.50106802353197       -2.60610860673153       -0.02066541790402
H            1.37527546081327       -2.95863247925473       -0.00853647978697
25
 energy: 16.785325960499 xtb: 6.6.1 (8d0f1dd)
C            3.31814794174000        1.12106278525867        0.07154765959146
N            2.33680327310219        0.08504806740253        0.02638345525773
C            2.62618807783033       -1.26929362471145        0.06535559106533
N            1.43414469435706       -1.95331437469376        0.00071785225988
C            0.42330858904930       -1.06232975554383        0.00392052386655
C            0.93592502734496        0.22803877676442        0.02358763479541
C            0.10927654077718        1.38713768571135       -0.00281203862184
O            0.49469618881214        2.55426692195435        0.08092170938061
N           -1.32131455101736        1.08580518483030       -0.15932510569615
C           -2.33320627737795        2.21541535776624       -0.14609002016431
C           -1.82020914139307       -0.18915978387130       -0.01757196261003
O           -3.00729606109098       -0.43142590382530        0.05857001343132
N           -0.91873234495998       -1.28608538481793        0.01776003847090
C           -1.41429446962437       -2.64789945091564       -0.00275616608896
H            3.80638246040517        1.16440130583678        1.05142085018225
H            4.08640660377370        0.94681916864149       -0.68736625895039
H            2.81526866455955        2.06566501631120       -0.11849080331208
H            3.59427428447885       -1.69840196417883       -0.06711918982292
H           -1.79797104808184        3.02625228508495        0.34381701271566
H           -2.99879247225395        2.77305096533092       -1.06344419728275
H           -3.17943085450114        1.80936094041898        0.38930591065633
H           -1.09211306395978       -3.19947528903035        0.88539900991165
H           -1.05928627906415       -3.17109728081648       -0.89617198037323
H           -2.50083635426121       -2.60628905029645       -0.02030033235712
H            1.37487523929162       -2.95852399643892       -0.01022531015799
25
 energy: 16.891314946247 xtb: 6.6.1 (8d0f1dd)
C            3.31834496566664        1.12078946474790        0.07145402919342
N            2.33673627078797        0.08494687407950        0.02667490823814
C            2.62632828235661       -1.26938800890037        0.06024469746055
N            1.43420536864785       -1.95321329332342        0.00125218538545
C            0.42341831180025       -1.06212412919347        0.00564009239527
C            0.93601662882500        0.22808344405814        0.02462881194342
C            0.10894598060843        1.38725164193834       -0.00266725144076
O            0.49530958756166        2.55443203803383        0.07897714652074
N           -1.32126437094715        1.08648911670686       -0.15781947400976
C           -2.33370380151544        2.21552611943789       -0.14559184866300
C           -1.81986222159531       -0.18897152217106       -0.01796910169218
O           -3.00717083969244       -0.43145474342790        0.05636945565542
N           -0.91859141446008       -1.28628515188373        0.01831007860805
C           -1.41405160517237       -2.64789070258686       -0.00244571300514
H            3.80694913782659        1.16375743953121        1.05114010593748
H            4.08630889862410        0.94663652944831       -0.68782430527938
H            2.81566863079208        2.06557633001249       -0.11830315639653
H            3.59459445305413       -1.69880738210427       -0.06322170130421
H           -1.79905319577259        3.02644977383143        0.34453982279886
H           -2.99907086527296        2.77427854240114       -1.06280243480833
H           -3.18070684117359        1.80842259669015        0.38832724259525
H           -1.09170060310317       -3.19955608398382        0.88558159556729
H           -1.05919947737720       -3.17103467279110       -0.89600810860677
H           -2.50058594048828       -2.60648621453494       -0.01991836960111
H            1.37434932795557       -2.95839940384435       -0.01153481134487
