25
 energy: -42.161148688705 gnorm: 0.006357753138 xtb: 6.6.1 (8d0f1dd)
C            3.38741682565188        0.90107614031294        0.36259272670903
N            2.38446266465565       -0.11101414505989        0.17985372332813
C            2.57928926353694       -1.42283588034383        0.09350436752608
N            1.38922194263234       -2.05915423488789       -0.05257896705523
C            0.41132081986187       -1.11623098623976       -0.05353961080937
C            1.03046869145124        0.13072373237049        0.09293329283845
C            0.29742892224986        1.32499783366998        0.16703357435443
O           -2.76520171161268        2.50039053951877       -0.77599134659735
N           -1.02211543061468        1.13179434143572        0.09568747607280
C           -1.88281251210261        2.33149865371909        0.26074721400890
C           -1.72194609386762       -0.07695893062061       -0.04243473986036
O           -2.91306164772159       -0.15488654697182       -0.06090894477576
N           -0.91873103281578       -1.23963942145903       -0.15408262632463
C           -1.56962429976367       -2.52650609435400       -0.30120272147471
H            3.84457883440641        0.81123967735989        1.34898661456502
H            4.16581147324486        0.80824926767021       -0.39432157850282
H            2.90687949258197        1.87362464495115        0.27915870142932
H            3.52970022550709       -1.91567928972401        0.13706867056343
H           -2.33766556019255        2.85928295503048       -1.56709714701449
H           -2.48253796139342        2.18521960704424        1.16952137289229
H           -1.18556249764182        3.16663496213516        0.39793737601750
H           -1.38482724742512       -3.15086438132954        0.57387398455029
H           -1.21629072399503       -3.02829603601929       -1.20230360048475
H           -2.64029495405411       -2.34480644077878       -0.38799702407866
H            1.27452403151393       -3.05962142583732       -0.13526916997262
