25
 energy: 0.000000000000 xtb: 6.6.1 (8d0f1dd)
C            3.23720163006194        1.16630919979326        0.08434469647475
N            2.29877817382611        0.07527477071623        0.03981603040599
C            2.58028210190900       -1.21425402444508        0.03006176031096
N            1.43813958087363       -1.93419271955128        0.00098261760884
C            0.39035688448383       -1.05887472636071       -0.00790371836672
C            0.93510056364412        0.21347819449412        0.01709077491437
C            0.09450143893243        1.40504303904423       -0.00410947031874
O            0.49712751527797        2.54126714362870       -0.00342325688240
N           -1.25076640035757        1.06271879480407       -0.03085478223738
C           -2.21907211982101        2.15522099834493       -0.05001256985998
C           -1.81739487048744       -0.20012725993278       -0.04692818574614
O           -2.99983886758376       -0.37846417018721       -0.07008878229737
N           -0.92618586207120       -1.30210215599479       -0.03682761578324
C           -1.46982264913417       -2.64643102187190       -0.06029820460571
H            3.71247264356769        1.21471455160235        1.06488849150277
H            4.00791497605742        1.03430808813993       -0.67357694370751
H            2.69910007168542        2.09770118228144       -0.09130154882931
H            3.56654120610678       -1.63682992603973        0.04233140067262
H           -1.67107961066214        3.09322851271934       -0.02552706933167
H           -2.82428953597071        2.09428624779827       -0.95318082946668
H           -2.87644029173232        2.07745725625962        0.81450067533302
H           -1.17061996399332       -3.19584890659852        0.83242232437030
H           -1.14560257411436       -3.17511610292205       -0.95688275822323
H           -2.55549792440841       -2.55659984320617       -0.07459039797972
H            1.38130855184625       -2.94313852034425       -0.01389874181052
25
 energy: -3.702592651393 xtb: 6.6.1 (8d0f1dd)
C            3.24667478980897        1.16879596140321        0.08052143131013
N            2.31048880046036        0.08761920913611        0.03449593040328
C            2.60213877201876       -1.24018795486949        0.03018040557523
N            1.43033893687398       -1.94773905178301        0.00310073464764
C            0.39936099177838       -1.06239244952622       -0.00757310845669
C            0.93280030575789        0.21638448318288        0.01343429381924
C            0.10734391631773        1.39390835065142       -0.00540548338447
O            0.50967534478286        2.55714048931104       -0.00880868919959
N           -1.25706462096746        1.06029349192290       -0.02940644312354
C           -2.21702048788602        2.16941363544579       -0.04158433805311
C           -1.81853829048484       -0.19847455819199       -0.04780446327949
O           -3.01475500588859       -0.38493198354880       -0.06664801832597
N           -0.93115640999187       -1.30450565126536       -0.03585439600667
C           -1.46401795277495       -2.65094527527087       -0.05679663208349
H            3.72121319239158        1.21931229878649        1.06398790827777
H            4.01708211246831        1.02921219277151       -0.67914796101335
H            2.70073094272806        2.09250296228652       -0.10191125455754
H            3.58054912949884       -1.66596415347352        0.04317788380698
H           -1.76039881111517        3.17079795305061        0.01351905499874
H           -2.78488054497594        2.14184978675859       -0.95404088458641
H           -2.92179579952394        2.04412948892855        0.77591734983031
H           -1.16078294510709       -3.20139757055985        0.83639495125706
H           -1.13067297489419       -3.18490492275707       -0.94940625574222
H           -2.54973758914688       -2.56906875119618       -0.07449117791716
H            1.36463886580747       -2.95181937902125       -0.00881694204942
25
 energy: 0.298038501732 xtb: 6.6.1 (8d0f1dd)
C            3.26107443032874        1.16117181812945        0.06940493499807
N            2.32279897353118        0.09150776344026        0.02271164489332
C            2.62065433506894       -1.27129608357297        0.03042450000412
N            1.41821236431356       -1.95938280587162        0.00786798461674
C            0.40892902760165       -1.06529344838285       -0.00581975260072
C            0.93133338821049        0.21840198370331        0.00710252850670
C            0.12551888733889        1.37993439162745       -0.00760966895595
O            0.51996660113445        2.55998550557717       -0.02146674896773
N           -1.26551438055677        1.07035282610038       -0.02256800052249
C           -2.22411219064176        2.19262592154599       -0.02880427297271
C           -1.81519200700130       -0.18784097339905       -0.04324025120948
O           -3.01796547553638       -0.38978199744983       -0.05780367407827
N           -0.93591343529563       -1.30018257762587       -0.03203200657431
C           -1.45053526881491       -2.65353758501349       -0.04938508992342
H            3.73491137498985        1.22332804626372        1.05520230315571
H            4.03525507402794        1.01588854147048       -0.68792360793311
H            2.71106100275339        2.07980450176983       -0.12412250962150
H            3.59042098151751       -1.70221545981723        0.04389307300929
H           -1.89988316315535        3.27577645473315        0.11821626128291
H           -2.70483633997044        2.23514253294624       -0.98771299731644
H           -3.01743550268216        1.96761155119079        0.70173754032914
H           -1.14242417796765       -3.20377578070938        0.84536909052689
H           -1.10166625475440       -3.19597753798131       -0.93432364961479
H           -2.53703108157443       -2.59242737220091       -0.07387652439179
H            1.34458750507083       -2.96079161430169        0.00179278950709
25
 energy: 8.645468031835 xtb: 6.6.1 (8d0f1dd)
C            3.27493668573555        1.14761251938491        0.05253856280102
N            2.33162394345211        0.08672443009922        0.00745716435927
C            2.63034752356542       -1.29886724817419        0.02859041362920
N            1.40850014360724       -1.96937756267512        0.01264937958290
C            0.41540065463514       -1.06911979187123       -0.00211323623777
C            0.93091169407113        0.21785735079794        0.00131363094699
C            0.13788056317645        1.37289978678820       -0.00690668238645
O            0.52287741665766        2.56020587686383       -0.03482574149491
N           -1.27741270866823        1.08846776252471       -0.00143692608777
C           -2.24170666906120        2.21950024193497       -0.01471467117167
C           -1.81387663019161       -0.17529205980697       -0.02701915415326
O           -3.01746663635477       -0.39644712258946       -0.04098968523222
N           -0.93871365542953       -1.29305101481386       -0.02415728681032
C           -1.43240905695838       -2.65542060302329       -0.04006366361822
H            3.74644703084529        1.22371127128423        1.04024666394217
H            4.05509479034658        0.99559448946043       -0.69893400808255
H            2.72745197213597        2.06538155519348       -0.15444800402021
H            3.59501173619967       -1.73515600956297        0.04075455593034
H           -2.04418017039422        3.35918515285828        0.26409462482775
H           -2.58614444944986        2.36188509133392       -1.04511902220738
H           -3.14054342703448        1.87891904265346        0.58982232662524
H           -1.11900932690595       -3.20181988271596        0.85754451183504
H           -1.06408614801320       -3.20205720413920       -0.91728081008903
H           -2.51978456668976       -2.62177670239338       -0.07344737677017
H            1.33106395865929       -2.97053076723993        0.01347833002929
25
 energy: 16.054584429877 xtb: 6.6.1 (8d0f1dd)
C            3.28416675064283        1.13226561738715        0.03805045935442
N            2.33461225914021        0.07628513343800       -0.00636287718943
C            2.63076946566189       -1.31706966288787        0.02491108342768
N            1.40344730731236       -1.97627110837098        0.01472622494106
C            0.41744245730360       -1.07400271713498        0.00242869855081
C            0.92987834487802        0.21430771347259       -0.00248771813939
C            0.14001373770980        1.37070475651144       -0.00491603963524
O            0.51570060103228        2.55547934248660       -0.04658835866340
N           -1.29369362482204        1.10629634141004        0.03497826036009
C           -2.26402499565003        2.24576878260236       -0.00549266281865
C           -1.81721683971595       -0.16736329849057        0.00303324029925
O           -3.01601358617542       -0.40928927216687       -0.01498807208086
N           -0.93980082137576       -1.28716523416778       -0.01400057815891
C           -1.41272872061618       -2.65901122435162       -0.03508658679254
H            3.75070569095872        1.22041307770096        1.02779939220244
H            4.07192827395162        0.97356590175683       -0.70470127211666
H            2.74441974343623        2.05251246372330       -0.18226932987941
H            3.59452350392782       -1.75688088913965        0.03412730410334
H           -2.17376372018587        3.40602789922253        0.37574621919700
H           -2.46710159050798        2.48590406032896       -1.07608727694475
H           -3.22927437504264        1.83280489063951        0.46450167695704
H           -1.09561464560259       -3.20112581254195        0.86498809647637
H           -1.02343300656370       -3.20200929560155       -0.90705991486607
H           -2.50035131059415       -2.65410650440054       -0.07914803206468
H            1.32762376883320       -2.97901235925392        0.02093195962773
25
 energy: 18.279534228119 xtb: 6.6.1 (8d0f1dd)
C            3.28764228873756        1.11494219099640        0.02806561478053
N            2.33129111210773        0.05762228147272       -0.01801846930985
C            2.61897860074155       -1.32226081071525        0.02061032484449
N            1.40467575396568       -1.97818307531799        0.01470591423894
C            0.41380256872344       -1.07983801583362        0.00628055285983
C            0.92956761069514        0.20708737992386       -0.00540498040770
C            0.13301018217215        1.37512093462692       -0.00582190543276
O            0.49957735432357        2.54345014699943       -0.05999020726717
N           -1.31239551868736        1.12537423315242        0.08508375076589
C           -2.29087475261122        2.27203537183216       -0.00109164251935
C           -1.82523818067539       -0.16322986402373        0.04100187645488
O           -3.01141062582110       -0.42716388007317        0.01692196720148
N           -0.93858592156480       -1.28154897679030       -0.00444850263001
C           -1.39411070797371       -2.66293205740213       -0.03483268272885
H            3.74604955004950        1.21343811165342        1.01986316686556
H            4.08458172119287        0.95153940011355       -0.70290427206589
H            2.76061254504179        2.04115178585817       -0.20450575945648
H            3.58730040429317       -1.76381295877880        0.02536311816066
H           -2.29836054507609        3.40992025721953        0.44119241588659
H           -2.35059271364123        2.59452412964704       -1.05493906254235
H           -3.25842343272204        1.82791289521215        0.32235557859015
H           -1.07690369507586       -3.20010358176729        0.86784719625732
H           -0.98452425043852       -3.19523303083769       -0.90354317391325
H           -2.48044452784382       -2.68570738083835       -0.09136622477276
H            1.33698984802331       -2.98507688415747        0.02460930228734
25
 energy: 18.873300102184 xtb: 6.6.1 (8d0f1dd)
C            3.28410889210772        1.10564594267954        0.01631712494762
N            2.32486959694080        0.04665724245435       -0.02989843353497
C            2.60347948391184       -1.30890485769846        0.01137803790439
N            1.40907237120635       -1.97447523003548        0.01466512559370
C            0.40491753542256       -1.08172717412946        0.01297560787881
C            0.92788379598132        0.20353873065148        0.00001086273630
C            0.12393037928200        1.38076360303129        0.00934920142301
O            0.48865048315586        2.53936060739666       -0.07675663354474
N           -1.32001030868318        1.13019904860713        0.14268828878504
C           -2.29705216039215        2.28983472291421        0.00222914556938
C           -1.83710462328994       -0.16498932390153        0.06990301688775
O           -3.01496340731666       -0.43850649511484        0.05283724336858
N           -0.93945973811104       -1.27961500835532        0.00780145802197
C           -1.38850542071607       -2.66554977537169       -0.03009336728610
H            3.73305579263786        1.20385564068359        1.01075734540818
H            4.08424155055848        0.93213128762699       -0.70717864065858
H            2.76607370579113        2.03403162373433       -0.22431599628765
H            3.57644448364480       -1.74844113555960        0.00569446425243
H           -2.38880724909168        3.37786365226865        0.52050597744457
H           -2.17847511497827        2.68250526590505       -1.01989827968195
H           -3.29195085182007        1.79432872012664        0.13662608893613
H           -1.07272710840280       -3.20048456906336        0.87319590609409
H           -0.96603063043277       -3.18326027819278       -0.89903821334368
H           -2.47130978836120       -2.70222519162845       -0.09627751818198
H            1.35188299889141       -2.98350844685698        0.02355608341493
25
 energy: 16.726717678803 xtb: 6.6.1 (8d0f1dd)
C            3.27469031892410        1.10741481678626        0.01177329971703
N            2.31567317050004        0.04546407288153       -0.03672854563153
C            2.58715782690983       -1.28083678933375        0.00416832646535
N            1.41412383338016       -1.96678291403146        0.01519602024112
C            0.39296917449087       -1.07930420038484        0.02127348078383
C            0.92381063771433        0.20472092673788        0.01141585420929
C            0.10736719904733        1.38376512710468        0.02475724558967
O            0.47708457032949        2.53954696042289       -0.10311960650588
N           -1.31985313776888        1.11697933661705        0.19005438826645
C           -2.28972171531646        2.28835388777598       -0.00197856216223
C           -1.85005677385247       -0.17491972051983        0.09219683302262
O           -3.02410188471904       -0.44392130309655        0.07812340018862
N           -0.94205139666410       -1.28349788586163        0.01949531287571
C           -1.39485871887694       -2.66900662145044       -0.02915954703093
H            3.71522561226291        1.19791469494966        1.00905003620737
H            4.07476951813784        0.92465643580139       -0.70739818156917
H            2.76052174064480        2.03479698152875       -0.23121143534876
H            3.56429418509918       -1.71822958981447       -0.01365575994845
H           -2.44975021238777        3.29656554127711        0.55179614846648
H           -2.02279718933147        2.73078291557012       -0.93217043755375
H           -3.24302738057687        1.79372609972162       -0.03367627302955
H           -1.08159285683256       -3.20618083401758        0.87181504179436
H           -0.96798443295050       -3.17310984135496       -0.90114469068604
H           -2.47466249507315       -2.70383050187750       -0.10024976147714
H            1.36498507484564       -2.97603899325999        0.01641130926281
25
 energy: 21.285003757158 xtb: 6.6.1 (8d0f1dd)
C            3.26948911482753        1.11057738662639       -0.00225188146047
N            2.30984490453136        0.05240007007494       -0.05122622898810
C            2.58335425009851       -1.27047194686494       -0.00591922158263
N            1.41286518408546       -1.96709696022322        0.01645692465782
C            0.38778294092055       -1.07933100748027        0.03273119937437
C            0.91572691010045        0.20747279628801        0.02156367250564
C            0.09450987513730        1.37663517260794        0.04335710193747
O            0.46477175993878        2.53909210266758       -0.12687102662808
N           -1.32481632541223        1.10266906400423        0.24720389692294
C           -2.28062487650771        2.29081525932003        0.00165857988784
C           -1.85930234738279       -0.18343065434636        0.12605933747674
O           -3.03548795920804       -0.45304978492416        0.11139223025940
N           -0.94733414663892       -1.28926967559892        0.03859632873262
C           -1.39608837321627       -2.67568498518390       -0.02144703941033
H            3.70479665293985        1.19831229737842        0.99780565050565
H            4.07012151790589        0.91565832109237       -0.71776586731666
H            2.75704086896547        2.03534914895155       -0.25173316142947
H            3.56006048646890       -1.70650211827793       -0.03801907904050
H           -2.57231592515790        3.25846862743519        0.66446552582821
H           -1.78019915668650        2.85192897551839       -0.88797979694510
H           -3.27037132388461        1.75087590359668       -0.26737392624593
H           -1.08202928222773       -3.21665492437426        0.87700735227146
H           -0.96179428383242       -3.17131183523279       -0.89506170711587
H           -2.47523006207187       -2.71382763483203       -0.09690121581184
H            1.36744426424331       -2.97459499605101        0.01128624776203
25
 energy: 16.973307052880 xtb: 6.6.1 (8d0f1dd)
C            3.26683088599867        1.11874564521575        0.00346729865413
N            2.30854804920753        0.06204121230468       -0.04663906517812
C            2.59019417516272       -1.27563923667388       -0.00276715154639
N            1.40996903360301       -1.96896327448084        0.01755593205377
C            0.39130487829764       -1.07835876980668        0.03320410997967
C            0.91284031855741        0.20981571733654        0.02164516186585
C            0.09416971932720        1.37169207829927        0.03478338543131
O            0.46585427032591        2.53594542904717       -0.11873513638319
N           -1.32076080912110        1.09769902976138        0.22362074523682
C           -2.26496921147505        2.28430314409985       -0.00542274032556
C           -1.85338873295934       -0.18383960615358        0.11808128642975
O           -3.03484410850573       -0.44553465672808        0.10151715680523
N           -0.94851068717169       -1.29264114522061        0.03868243553946
C           -1.40015140704155       -2.67625751988681       -0.02349962872138
H            3.70499298671346        1.20610784083777        1.00322766625264
H            4.06732864450313        0.92685521625890       -0.71387139778848
H            2.75097438688392        2.04297001565912       -0.24409320938233
H            3.56444318809971       -1.71127582397163       -0.03550491162086
H           -2.55362071746921        3.25960077707519        0.62504453969130
H           -1.82694780426252        2.81615219713082       -0.85364923856499
H           -3.23043989292656        1.76948351797562       -0.23599310473033
H           -1.08764064992382       -3.22307596240692        0.87269429390479
H           -0.97169263759699       -3.17594133092790       -0.89898424142510
H           -2.48183559289852       -2.70582124861995       -0.09640724355347
H            1.35956638260811       -2.97503464395324        0.00907695352274
25
 energy: 15.637936453262 xtb: 6.6.1 (8d0f1dd)
C            3.25764236114151        1.13068035454064        0.00456138607814
N            2.30192261923497        0.07322775541891       -0.04658257157823
C            2.59502878885007       -1.27414923785107       -0.00471695845988
N            1.40914044137520       -1.96972051706748        0.01689896994220
C            0.39248150255253       -1.08023100657175        0.03649122366049
C            0.90525363764879        0.20949068408150        0.02560064275890
C            0.08211416762279        1.36274900592317        0.03601783427270
O            0.45527206252140        2.52869502633028       -0.10581428082574
N           -1.32476007355799        1.08425256439523        0.22453192368870
C           -2.25141447557850        2.27460658551253       -0.01081283452106
C           -1.85240740783888       -0.19364231920445        0.11993973224336
O           -3.03837232842873       -0.44766579351020        0.10001813985104
N           -0.95051282589048       -1.30251525887556        0.04548545759297
C           -1.40606530434944       -2.68229941072107       -0.02106602889365
H            3.70008239200349        1.21873035650560        1.00305274354038
H            4.05677235704936        0.94284570536777       -0.71544580421025
H            2.73838830507306        2.05397752024540       -0.24055431759597
H            3.56838545872012       -1.70635933512897       -0.04521286632058
H           -2.57708613774788        3.21980602316519        0.61275231332023
H           -1.75494624497315        2.84317978045588       -0.79252437037697
H           -3.17963553090460        1.79773514661380       -0.29993710715790
H           -1.09516849251245       -3.23700119240171        0.87134038791202
H           -0.98768630710981       -3.18382865771928       -0.90053183830582
H           -2.48936321433600       -2.69887559655442       -0.08870007152364
H            1.35714891737099       -2.97465958077802        0.00224219105576
25
 energy: 16.673586232532 xtb: 6.6.1 (8d0f1dd)
C            3.24912895871339        1.13991455058240        0.00235290454583
N            2.29603105076559        0.08086213118346       -0.04826072760559
C            2.59972359906745       -1.27412028131544       -0.00855907784663
N            1.40904412207919       -1.97110790207761        0.01460685485563
C            0.39399906148302       -1.08330004608987        0.04020444713963
C            0.89986108864242        0.20667213515107        0.03061038583000
C            0.07369661968740        1.35596858393459        0.04391438251675
O            0.45176994623903        2.52288963564273       -0.08772790342077
N           -1.32686169391131        1.07642284759600        0.23411856482917
C           -2.23232603436224        2.27275412954592       -0.01919371820973
C           -1.84961389174141       -0.20062241543399        0.12527914758898
O           -3.03911283380312       -0.44691144960946        0.09804458810435
N           -0.95139134527294       -1.31081806967426        0.05491149250103
C           -1.41278030904176       -2.68644512247671       -0.01544350461593
H            3.69718999966603        1.22944581979068        0.99861507002729
H            4.04556854162308        0.95752349398211       -0.72209344754067
H            2.72646357666808        2.06283056019683       -0.23881897167763
H            3.57265923299583       -1.70230863474315       -0.05972035706410
H           -2.63989570456271        3.18841437525206        0.62459967144270
H           -1.64854308787590        2.87308431010400       -0.69336020626822
H           -3.15191259873160        1.80327119895894       -0.43938298554962
H           -1.10207829859185       -3.24869006307149        0.87269931956994
H           -1.00665781555440       -3.19063011576644       -0.89947606647361
H           -2.49783264989977       -2.69055090888500       -0.07516113049487
H            1.35608513365484       -2.97552016060544       -0.00572483603670
25
 energy: 15.939174188803 xtb: 6.6.1 (8d0f1dd)
C            3.24401923033278        1.14254560840783        0.00095980503740
N            2.29279573041061        0.08074790636451       -0.04719526160320
C            2.60024293301986       -1.27310874140827       -0.00941011773102
N            1.41097080943771       -1.97097981956038        0.01207511568618
C            0.39349105331309       -1.08700807705986        0.03985217693550
C            0.89761960752506        0.20251915378622        0.03216592051576
C            0.06793745523403        1.35370427136155        0.05212886302031
O            0.44960190420504        2.52113869689046       -0.07355860850503
N           -1.33557887609907        1.07365333390358        0.23420462903486
C           -2.23659220323243        2.26994355534288       -0.02605405950984
C           -1.85243888958017       -0.20753754182514        0.12260807717681
O           -3.04106417322889       -0.45447359581594        0.08988002478682
N           -0.95107177360445       -1.31531578049106        0.05672902200558
C           -1.41410268688784       -2.68993051373335       -0.01149853776613
H            3.69628368199345        1.23242812343085        0.99506237608518
H            4.03800647242845        0.96518201182833       -0.72773665300651
H            2.71910955325467        2.06566783420929       -0.23559530470678
H            3.57471567251402       -1.69741322373876       -0.06490912945858
H           -2.65821837886704        3.16497691672043        0.62753259496207
H           -1.60287788724761        2.90585768080717       -0.66636512906502
H           -3.12747792258226        1.82055561103075       -0.47840818984070
H           -1.10037602855517       -3.25159082058808        0.87562425637971
H           -1.01371953000527       -3.19515532068232       -0.89775675622260
H           -2.49968275656645       -2.69125525007685       -0.06536891880180
H            1.36062167072424       -2.97612341693192       -0.00793229926175
25
 energy: 15.848783021302 xtb: 6.6.1 (8d0f1dd)
C            3.24394795697917        1.14080436029205        0.00093203809433
N            2.29333390480212        0.07761834046958       -0.04423510583093
C            2.59989579167970       -1.27398235841304       -0.00859818747897
N            1.41211185457343       -1.97083506234890        0.00946321177486
C            0.39327904335980       -1.08849377457174        0.03801061413345
C            0.89907876982180        0.20028333426261        0.03226451880565
C            0.07037183785984        1.35495183094296        0.05825547621035
O            0.45524299914781        2.52220612141593       -0.06164150406360
N           -1.33877289038505        1.07723507569938        0.22967383830318
C           -2.24131618974528        2.27180114190765       -0.03099950284484
C           -1.85337978339440       -0.20754535433327        0.11848479465265
O           -3.04061687020107       -0.45618815044417        0.08191772832457
N           -0.95018790465492       -1.31440610163813        0.05499561843733
C           -1.41350473803316       -2.68953434615992       -0.01044628158847
H            3.69936467855132        1.22979324938562        0.99335506165039
H            4.03557492265615        0.96651092255092       -0.73137735205248
H            2.71743738033328        2.06424743282324       -0.23164632013976
H            3.57544510030795       -1.69660990028916       -0.06478358026123
H           -2.65456088141474        3.16630905831003        0.61921392761702
H           -1.61690364929891        2.89870493395137       -0.66131432950733
H           -3.12620752194751        1.82983152168813       -0.47468905015313
H           -1.09632245943292       -3.24903532498419        0.87652091394926
H           -1.01545225814131       -3.19533885624432       -0.89757129056931
H           -2.49913675142494       -2.69260521108369       -0.06066962548381
H            1.36349232593816       -2.97669428101700       -0.00808171583195
25
 energy: 16.144220939117 xtb: 6.6.1 (8d0f1dd)
C            3.24340549382445        1.14066168691127       -0.00011201885536
N            2.29287597857633        0.07736307280721       -0.04237457911290
C            2.59923945794800       -1.27372827469480       -0.00759556983054
N            1.41217618809189       -1.97094270169204        0.00794582925065
C            0.39254900738120       -1.08917065910666        0.03717065025240
C            0.89860248948707        0.20003212859671        0.03212115282697
C            0.07086823124036        1.35392778605307        0.06076659609365
O            0.45678399352587        2.52154446479652       -0.05387919233087
N           -1.34148411631690        1.07682532034263        0.22807218717002
C           -2.24098350689762        2.27313696791417       -0.03289059151622
C           -1.85495692210919       -0.20842691507694        0.11683374684120
O           -3.04181079427266       -0.45764544594969        0.07848326352164
N           -0.95064779818514       -1.31446254402780        0.05468907867884
C           -1.41307385028067       -2.69032042894928       -0.00914307653947
H            3.70139555900434        1.22849614846456        0.99117534749144
H            4.03311435239180        0.96677750126829       -0.73489579497765
H            2.71554700663257        2.06394713662929       -0.23052358638499
H            3.57525449377981       -1.69528061737911       -0.06542512126272
H           -2.66361771177895        3.16344444202620        0.61949244636166
H           -1.60603934813300        2.90597774690170       -0.64226193432436
H           -3.12436512145432        1.83352726620316       -0.49615585591952
H           -1.09274615791823       -3.24860151262854        0.87743916595077
H           -1.01599889854160       -3.19605750030981       -0.89693057229583
H           -2.49883192879657       -2.69508219178642       -0.05728951081452
H            1.36495857073752       -2.97691427514177       -0.00767816412710
25
 energy: 16.433504365339 xtb: 6.6.1 (8d0f1dd)
C            3.24382489567432        1.14011125094173       -0.00102300982845
N            2.29288897309804        0.07720201460011       -0.04003063332929
C            2.59822261391473       -1.27351139953548       -0.00580965590971
N            1.41175360119294       -1.97098812851335        0.00695337381294
C            0.39172667290739       -1.08931887357473        0.03596833999288
C            0.89804832339910        0.20069179207589        0.03133604302203
C            0.07171027947883        1.35340272608275        0.06154538951590
O            0.45688331210197        2.52196637012251       -0.04876292992135
N           -1.34372699031457        1.07594917453490        0.22488460300732
C           -2.24204416912964        2.27330442160480       -0.03404756510569
C           -1.85660294022867       -0.20873420217573        0.11465494587685
O           -3.04311852432253       -0.45907524074840        0.07604454507818
N           -0.95129072246267       -1.31408607384782        0.05323831261653
C           -1.41224157328928       -2.69087449327657       -0.00859586699546
H            3.70424857665176        1.22709615758913        0.98922050338330
H            4.03171607810337        0.96565012223790       -0.73776189855715
H            2.71525565990672        2.06326442787512       -0.23001087684026
H            3.57447005027316       -1.69469180553733       -0.06457299025693
H           -2.66968273696605        3.16347611389324        0.62115524019992
H           -1.60076190488525        2.91070335233671       -0.63331499702912
H           -3.12238601741513        1.83617861611879       -0.50411362052563
H           -1.08939703784203       -3.24750538425707        0.87808594825274
H           -1.01515836428938       -3.19651567398497       -0.89643190365061
H           -2.49782930848982       -2.69770170117664       -0.05566189780516
H            1.36570592086902       -2.97696496121355       -0.00591550285660
25
 energy: 16.489970109190 xtb: 6.6.1 (8d0f1dd)
C            3.24454899094920        1.13967446292592       -0.00169478226818
N            2.29320101550222        0.07703821672028       -0.03762546465125
C            2.59728188448911       -1.27320239372874       -0.00410113831020
N            1.41132820097193       -1.97087380913959        0.00603665392816
C            0.39107886432408       -1.08922049714455        0.03478983837801
C            0.89757173890057        0.20154514656028        0.03067227664067
C            0.07232912907280        1.35327176684962        0.06248082411330
O            0.45554068597797        2.52283439324244       -0.04543309745208
N           -1.34529113945868        1.07469615533735        0.22357816914758
C           -2.24288687316092        2.27345915673334       -0.03358219879755
C           -1.85800189433002       -0.20882492837992        0.11391057850637
O           -3.04420096647704       -0.46047925529676        0.07562059009511
N           -0.95181088435929       -1.31381908202383        0.05133272780839
C           -1.41148004917856       -2.69132484764896       -0.00899756338810
H            3.70709397411349        1.22647496634944        0.98760927093898
H            4.03092018401370        0.96456250859142       -0.73985608130408
H            2.71571024099425        2.06275524820148       -0.22980432634763
H            3.57363785643761       -1.69452202461957       -0.06367691544067
H           -2.66818839539401        3.16382801186710        0.61953295805476
H           -1.59937803974455        2.91157254544432       -0.63100849839585
H           -3.12464873191704        1.83949375320030       -0.50433302261333
H           -1.08725329408940       -3.24662913079281        0.87797867238799
H           -1.01413624440200       -3.19687821955645       -0.89662101825131
H           -2.49679674327988       -2.69957183779091       -0.05554388478494
H            1.36604515798079       -2.97683170372929       -0.00423067184691
25
 energy: 16.621006994760 xtb: 6.6.1 (8d0f1dd)
C            3.24532805646700        1.13930991814736       -0.00205552924557
N            2.29376738973918        0.07678838098551       -0.03524007382658
C            2.59682137178738       -1.27319465333758       -0.00226475152700
N            1.41096929569916       -1.97071126722520        0.00564977594718
C            0.39088328966825       -1.08895146215922        0.03386404997516
C            0.89737453796713        0.20223439814001        0.02990577690984
C            0.07305038976822        1.35374874709839        0.06236046046827
O            0.45390876217442        2.52401319917432       -0.04509649535882
N           -1.34547027272865        1.07384809136917        0.22246298128722
C           -2.24319338780929        2.27345191867676       -0.03352723887095
C           -1.85844094513350       -0.20829900737238        0.11341096725152
O           -3.04447827574624       -0.46119576740608        0.07680021091794
N           -0.95197173660175       -1.31367899082721        0.04917396612049
C           -1.41120563537489       -2.69136327129584       -0.00979676175978
H            3.70913973134410        1.22699827522696        0.98662589987227
H            4.03082004446663        0.96337406361964       -0.74085207489321
H            2.71660339703578        2.06232812715649       -0.23035701960159
H            3.57302416493337       -1.69508674880807       -0.06295159863751
H           -2.66697975375975        3.16731070186886        0.62091774374081
H           -1.60045927725970        2.90842045214251       -0.63408850472426
H           -3.12589930494105        1.83944777637561       -0.49968761803798
H           -1.08731102181779       -3.24591374443954        0.87777916796211
H           -1.01346795572142       -3.19732415851899       -0.89684530152272
H           -2.49635345874923       -2.69986925178567       -0.05663966796437
H            1.36575526252900       -2.97665712463390       -0.00251446833523
25
 energy: 16.555117967385 xtb: 6.6.1 (8d0f1dd)
C            3.24488327530516        1.13970446979171       -0.00193932272666
N            2.29373778065764        0.07678020406884       -0.03457218057567
C            2.59726585456994       -1.27322691496451       -0.00186682920978
N            1.41124815637827       -1.97063722619983        0.00557253661494
C            0.39113102076083       -1.08909361447423        0.03393148027066
C            0.89739549205750        0.20182362976984        0.03003588844533
C            0.07273645102326        1.35377524719832        0.06257380265594
O            0.45355964189788        2.52379961701566       -0.04578228958182
N           -1.34526177503144        1.07371903381196        0.22318511957500
C           -2.24271633417845        2.27363896763409       -0.03332502425162
C           -1.85816544506972       -0.20843709356569        0.11378206403643
O           -3.04421328517454       -0.46142974107075        0.07769191977498
N           -0.95171808636559       -1.31418913516937        0.04880912842082
C           -1.41157665149205       -2.69146888819151       -0.01004274200830
H            3.70860423890889        1.22823962324806        0.98669719886708
H            4.03052930235392        0.96395584697013       -0.74065597302480
H            2.71597909819169        2.06259583860200       -0.23063267631526
H            3.57337390267501       -1.69509961118345       -0.06371722598888
H           -2.66441316399822        3.16740531569773        0.62020549640478
H           -1.59999099839312        2.90801525659853       -0.63531453556003
H           -3.12640955916206        1.83909097088136       -0.49853979380928
H           -1.08852133826125       -3.24632296141368        0.87768644450315
H           -1.01408590304990       -3.19793390918540       -0.89695143830859
H           -2.49690063887869       -2.69905711038000       -0.05699531471403
H            1.36574363221143       -2.97661921331789       -0.00280183734713
