  25
        -42.10457899
 C          3.2292678407        1.1433877957        0.0157751633
 N          2.2859835681        0.0569301776       -0.0009858975
 C          2.5703770557       -1.2409154693       -0.0114870599
 N          1.4310857494       -1.9643418388       -0.0163711446
 C          0.3753530679       -1.0863177389       -0.0079785706
 C          0.9189048658        0.1930733604       -0.0007577884
 C          0.0984929301        1.3837816142        0.0020941564
 O          0.5025783767        2.5246225872        0.0058239471
 N         -1.2621878388        1.0574270672       -0.0026725130
 C         -2.2117909596        2.1659399022       -0.0233120604
 C         -1.8422583886       -0.1808127015        0.0048043145
 O         -3.0267682299       -0.3597985037        0.0095134511
 N         -0.9566215750       -1.3372938502        0.0031601995
 C         -1.5230253175       -2.5557434231        0.0115732337
 H          3.8570236551        1.0849687048        0.9048562178
 H          3.8671159605        1.1055069721       -0.8673292410
 H          2.6785538513        2.0836151772        0.0235294679
 H          3.5582079425       -1.6582361743       -0.0155279051
 H         -1.6447524458        3.0931934577       -0.0125363773
 H         -2.8247912445        2.1077301942       -0.9217237658
 H         -2.8642834890        2.1098856005        0.8465490831
 H         -0.9232675730       -3.4401353898       -0.0370573344
 H         -2.6070988739       -2.6053093706        0.0409039919
 H         -4.4819939595       -2.7598894812        0.1619867643
 H          1.3839554367       -2.9727781977       -0.0220002125
