  25
        -42.18306087
 C          3.5293165553        0.2911188173        0.1424836589
 N          2.3676601648       -0.5477339545        0.0620527558
 C          2.3456577615       -1.8841538836       -0.0123233886
 N          1.0586610398       -2.3238434587       -0.0570501411
 C          0.2442388557       -1.2380374626       -0.0062823661
 C          1.0645775282       -0.0983339937        0.0661392378
 C          0.5238499516        1.1843769500        0.0989202152
 O         -0.7064552417        3.4855998138       -0.4767162638
 N         -0.8256329756        1.2106298255        0.1149295231
 C         -1.4462719842        2.5381939418        0.1961767515
 C         -1.6977190052        0.1234026203        0.0598892355
 O         -2.8941892268        0.2502125769        0.0723482585
 N         -1.1004263621       -1.1486090383       -0.0224260983
 C         -1.9504462184       -2.3143966811       -0.1473186449
 H          3.9739450153        0.2386515740        1.1385064908
 H          4.2740598169       -0.0202435328       -0.5894120357
 H          3.2275395041        1.3179821154       -0.0533349108
 H          3.2059760108       -2.5201919267       -0.0275119125
 H         -1.5389412985        2.8074976487        1.2615405447
 H          0.2210937581        3.1717795087       -0.5130524982
 H         -2.4507614895        2.4911354629       -0.2396122286
 H         -1.8508266142       -2.9576485611        0.7276883573
 H         -1.6986521542       -2.8706961305       -1.0505092322
 H         -2.9801000382       -1.9654652791       -0.2150479243
 H          0.7835879581       -3.2933955338       -0.1144107520
