  25
        -42.10950119
 C          3.1439105121        1.0875913729       -0.0046312684
 N          2.2802727950        0.0802841370       -0.0023881530
 C          2.5430646689       -1.2475635015       -0.0110834572
 N          1.3772543814       -1.9507049564       -0.0051969901
 C          0.3453144286       -1.0644692097        0.0076264358
 C          0.8898311355        0.2083259487        0.0112753299
 C          0.0689011284        1.3966438801        0.0126305125
 O          0.4732442155        2.5349419273        0.0200322990
 N         -1.2890047200        1.0706153140        0.0006502406
 C         -2.2399859258        2.1725390800       -0.0192148897
 C         -1.8581044393       -0.1890913195        0.0013661404
 O         -3.0448443553       -0.3582326084       -0.0062513849
 N         -0.9775614185       -1.2950289179        0.0097681010
 C         -1.5325683736       -2.6320109563        0.0126430271
 H          4.2228063716        0.9030129317       -0.0420505482
 H          5.9661254259        0.9594365960       -0.2762108481
 H          2.7567573944        2.0928400316       -0.0005864929
 H          3.5198323632       -1.6854988579       -0.0213244708
 H         -1.6778966196        3.1034721232       -0.0040137910
 H         -2.8535721766        2.1145917853       -0.9180222919
 H         -2.8980732204        2.1112285234        0.8472737281
 H         -1.2424505050       -3.1670123731        0.9173602784
 H         -1.2079906216       -3.1846932374       -0.8697570667
 H         -2.6183024198       -2.5363798553       -0.0088377900
 H          1.3131648207       -2.9581889716       -0.0084030036
