25
 energy: -42.443246873187 xtb: 6.6.1 (8d0f1dd)
C            3.32022812838925        1.11458159929714        0.06843670537241
N            2.37227151643615        0.03980734404670        0.03709496898925
C            2.65144239971871       -1.27860942418621        0.00856363287603
N            1.49591002609009       -1.97957741293780        0.00170494102996
C            0.45720437257474       -1.10862985446810        0.03610111457538
C            0.98434356588763        0.18763838956255        0.06591694086140
C            0.18451545288324        1.34558352161273        0.09267514954684
O            0.57080280805461        2.51688976668671        0.09901231433854
N           -1.21467629336248        1.02996766794828        0.11731902172630
C           -2.08826941710304        2.05188934405611        0.19136276775632
C           -1.75855435161927       -0.26420065327429        0.07275782047398
O           -2.95484869544549       -0.46411338923277        0.07401131359265
N           -0.87213875345108       -1.34530751982384        0.03576129565293
C           -1.39661625863486       -2.69320635099391       -0.00909521865510
H            3.79832858518748        1.17684414753734        1.04884716298616
H            4.08821237294437        0.96387816512135       -0.69101901331423
H            2.78188313451773        2.04338362277512       -0.12023766406420
H            3.63104520557605       -1.70418324960959       -0.02082729835111
H           -1.67636404120988        3.04132203070210        0.20594037922063
H           -4.12825344360828        3.53934481895932       -1.50168934487128
H           -3.13644387224385        1.84842086570556        0.11177588027330
H           -1.09316003589681       -3.25157831333150        0.87854904930474
H           -1.05390635364456       -3.20770365631324       -0.90883560408377
H           -2.48292063949690       -2.61798445367958       -0.03017486676328
H            1.42887872370259       -2.98468405373263       -0.02543709376443
