25
 energy: 54.930146168583 xtb: 6.6.1 (8d0f1dd)
C            2.97630731554275        1.18567548255942        0.06859369678323
N            2.21034439793879       -0.03134578726369        0.02138455248425
C            2.66907332028603       -1.27739897645683       -0.02398007953607
N            1.62087632957407       -2.14016076190030       -0.02488905099492
C            0.46167646359431       -1.40041563906399       -0.01507571933114
C            0.83792911699498       -0.06285787825698        0.01123165567492
C           -0.19847786381403        1.00662054965157       -0.04782002131182
O            0.10672679404066        2.19438594915372       -0.04217176416531
N           -1.45034466423278        0.53050726545761       -0.09811621993594
C           -2.35715480443386        3.98406661986799        0.03185782149169
C           -1.85076086180238       -0.71726601488297       -0.06154680806065
O           -2.98025748146089       -1.14134686814238       -0.05488643474555
N           -0.80074538831781       -1.80190389806357       -0.03897036799550
C           -1.18943948929285       -3.19271772416069       -0.06476941234672
H            3.21438700214895        1.44287783295943        1.11875619082966
H            3.89792936341361        1.07979502702579       -0.52358008557178
H            2.34079017731112        1.97349750113021       -0.36042230470962
H            3.69656182846676       -1.57766386913181        0.08851866483629
H           -1.30205873479255        4.09866651129483        0.07274217850206
H           -2.81581459281553        3.85497369552942       -0.92153840772864
H           -2.91044845699190        3.80129926042221        0.92247092697817
H           -0.84301827540123       -3.71513803767722        0.83019798429168
H           -0.80792607376755       -3.69828828992619       -0.95598143697821
H           -2.27698501601040       -3.21476039547537       -0.08854504184029
H            1.68716873379581       -3.14231253512675       -0.00582760149006
