25
 energy: 57.337337838347 xtb: 6.6.1 (8d0f1dd)
C            3.02755835555279        1.21529978999411        0.09587017831339
N            2.19559987625779        0.04161056396488        0.00786802406851
C            2.60688039343462       -1.24760179097947        0.10920757705324
N            1.49304784638820       -2.06316037213436        0.01529554192479
C            0.38602017437856       -1.25235300807052       -0.01442351387212
C            0.81922988897044        0.05048368205709       -0.00255110488020
C           -0.10724806683789        1.16337097924075       -0.08122291133868
O            0.34769585764582        2.29646920952766       -0.19497048750005
N           -1.42298483468949        0.83950820176649       -0.02854265263379
C           -2.15915189704967        3.02902195024960        0.03206836895292
C           -1.89744516477161       -0.42339347622178       -0.02621408886538
O           -3.05787648108057       -0.75799720013131       -0.03330387552543
N           -0.91468571485612       -1.54850207866169       -0.04222117554387
C           -1.31980113750476       -2.92670109179398       -0.06850443565280
H            3.21525876067378        1.46320015414544        1.14003077861542
H            3.97995753946708        1.03362755832474       -0.37480035392122
H            2.44889812166534        2.03140409577791       -0.35640842514732
H            3.59061436069772       -1.55599900476054       -0.12541663273375
H           -1.19685826997340        3.47103906450311        0.10884625473996
H           -2.62711247946207        3.01591305409977       -0.91330144444010
H           -2.74571178163383        2.95891511648413        0.90529904025195
H           -0.92709711411592       -3.43045266583315        0.81894213311788
H           -0.89010750801120       -3.40505265270844       -0.95206106038708
H           -2.41708276221067       -2.92883069107593       -0.08371168281807
H            1.53372034846209       -3.07006898560965       -0.00597487586488
