25
 energy: 57.758328486739 xtb: 6.6.1 (8d0f1dd)
C            3.01048231867402        1.21589831305278        0.09468346113272
N            2.19597655493229        0.02915382600955        0.02351360647201
C            2.62860061324573       -1.24762275330366        0.06287007642741
N            1.53075632483190       -2.08104486537672        0.00467927738524
C            0.40618191498669       -1.28988472582318       -0.01121599398863
C            0.82477566607462        0.01989489610914        0.01887150158901
C           -0.13924001200509        1.11849017942844       -0.07707506972848
O            0.29178222541562        2.25613324502234       -0.20098087874644
N           -1.42916021102138        0.76059372798709       -0.03254512145190
C           -2.19652470828250        3.22667182095194        0.03724958615834
C           -1.88457455985812       -0.48958747759087       -0.02731472125968
O           -3.03881075322289       -0.84244922264016       -0.03301101889066
N           -0.88383576846224       -1.61171033379835       -0.04192040873297
C           -1.29373564786279       -2.98657410884336       -0.07337672716694
H            3.14144880614437        1.53019789895826        1.13109946891699
H            3.99064183868759        1.01843125730999       -0.30938926940811
H            2.47437526822874        2.01407766485630       -0.42796412284361
H            3.62055400674007       -1.55064612408397       -0.19182465304930
H           -1.21093084733346        3.60827031894616        0.12792568345944
H           -2.64961622494071        3.18795880994437       -0.91698505750548
H           -2.80105828243016        3.11976952564829        0.89905605015800
H           -0.91680902845532       -3.49781078202973        0.81471768820349
H           -0.87963022620266       -3.46905964960505       -0.96107544434455
H           -2.39182082368838       -2.98514777551379       -0.08746203312220
H            1.57624913100974       -3.08998119030548       -0.00512162887713
