25
 energy: 18.208780543847 xtb: 6.6.1 (8d0f1dd)
C            3.08636794701535        1.22173182966207        0.10097247514457
N            2.22889946149035        0.07672291446060        0.00452035521630
C            2.60520459781900       -1.26080389239257        0.13005169886136
N            1.43557549072849       -2.01807366252711        0.00360743064126
C            0.37378652315480       -1.17609106009202       -0.02266365160937
C            0.83403091271729        0.12390633327967       -0.01360278313655
C           -0.00866751802535        1.25624243730976       -0.05242598051911
O            0.45553543264538        2.40242772569567       -0.12486308362663
N           -1.42942316004686        1.04880419126057       -0.02093410183270
C           -2.09556952423373        2.50587921665391       -0.00194598340960
C           -1.91773073758074       -0.28597113288910       -0.03488052360725
O           -3.08730728947590       -0.59728118696555       -0.05757577209671
N           -0.96654320096903       -1.40988762409365       -0.04164324325709
C           -1.38008618083338       -2.79830799716894       -0.06186883970120
H            3.41774306971239        1.40876219722473        1.12483263198128
H            3.95426425187289        1.08349665465429       -0.51303963687936
H            2.47797787643538        2.07283996017849       -0.22939130448952
H            3.58931879188532       -1.59556750948356       -0.16351497476972
H           -1.23284166550540        3.18500638293658        0.03762971152076
H           -2.68399163762036        2.67287568487618       -0.90850363774005
H           -2.74295404262031        2.63605380425425        0.85868039974748
H           -1.00038937472507       -3.32286152956887        0.82307989950152
H           -0.97544118750934       -3.30585426459219       -0.94480756788709
H           -2.47286283443285       -2.79998469512271       -0.07868757990332
H            1.45025041287014       -3.02719588269683       -0.00065751250288
