25
 energy: 57.711014408752 xtb: 6.6.1 (8d0f1dd)
C            3.00435137691808        1.21398584606892        0.09227065481238
N            2.19848907910024        0.01940214027004        0.03398974182472
C            2.64048547868517       -1.25271949483386        0.08772726247183
N            1.54847902893904       -2.08879767084848        0.00415329719847
C            0.41664611374292       -1.30882816640620       -0.01264202722481
C            0.82934360244742        0.00330278305407        0.02301058594583
C           -0.15052849211057        1.09637724044098       -0.07130375245079
O            0.26860426222601        2.23646134012823       -0.19146299011336
N           -1.42865590120078        0.72363498295478       -0.03427027356192
C           -2.21489901574729        3.31860998520203        0.03840678367557
C           -1.87663147835730       -0.52202531887349       -0.03139290319545
O           -3.02899749714665       -0.87956632559137       -0.03421913584408
N           -0.86940153683584       -1.64143860455062       -0.04378661501585
C           -1.28118867538848       -3.01582396315745       -0.07417199323378
H            3.10795244172945        1.56434133434499        1.11974855955228
H            3.99658743985182        1.01336944236592       -0.28598546195129
H            2.49204675484413        2.00223593128954       -0.46415227521826
H            3.63698965590605       -1.55581787322300       -0.17051279219695
H           -1.21800071151233        3.67265931477109        0.13229579896892
H           -2.66623670646941        3.27518898659457       -0.91857298099325
H           -2.82494342815463        3.19998271268290        0.89843079604602
H           -0.90978942068971       -3.52893859332537        0.81498151165296
H           -0.87302417303394       -3.50131725072819       -0.96300647458148
H           -2.37938357781830       -3.01450786280640       -0.08785491525487
H            1.59768012704831       -3.09709870127692       -0.00101605411346
