  25
        -42.17264524
 C          3.3022441344        1.0362112221       -0.0288147737
 N          2.2674081063        0.0395039867        0.0109524709
 C          2.4426204468       -1.2903903684        0.0427505250
 N          1.2323747955       -1.9089829372        0.0493183745
 C          0.2671052737       -0.9358111739        0.0237847549
 C          0.9182376708        0.2916457344        0.0054942241
 C          0.2105076138        1.5522841125       -0.0181808261
 O          0.7007642980        2.6649383948       -0.0754287424
 N         -1.1682246075        1.3463736396        0.0385167861
 C         -1.9751950170        2.5484996122        0.0216087832
 C         -1.7738412335        0.1356039772        0.0884312207
 O         -3.0916203091       -2.2305908099        0.0039679437
 N         -1.1019885074       -1.0539726696        0.0110863278
 C         -1.7386564379       -2.2320144021       -0.1288770962
 H          3.9630270658        0.9316300766        0.8311956129
 H          3.8918695907        0.9327049510       -0.9405956667
 H          2.8344349569        2.0199180604       -0.0136608595
 H          3.3873765848       -1.7917397970        0.0547175780
 H         -1.7958867120        3.0840456684       -0.9109214370
 H         -3.0277451999        2.3037025039        0.1135365224
 H         -1.6668432210        3.2008805601        0.8384029683
 H         -3.4969562205       -2.8665211167       -0.6040036277
 H         -1.1800620100       -3.1514748179       -0.0886201038
 H         -2.8449814572        0.0850241058        0.1521102382
 H          1.1025398179       -2.9066516914        0.1014721188
