72
 energy: -99.327789630589 gnorm: 0.002541377293 xtb: 6.6.1 (8d0f1dd)
N           -2.21911755982974        2.98854240966115        2.48902566503530
C           -2.05195263248351        2.22520616966112        1.51477959302996
C           -3.06906201433733        1.99781265251577        0.42899794483165
C           -3.50935142503955        0.54312350648572        0.44708276025846
C           -4.30097284287596        0.04296533599336       -0.58902633360107
C           -4.73985014130387       -1.27095751255715       -0.59568665300881
O           -5.51598584277632       -1.82976668934398       -1.54688715911223
C           -6.03244411595493       -1.02215446287090       -2.57873872924226
C           -4.36505140440784       -2.14033590484104        0.46559518765040
O           -4.81985612474261       -3.40464299525340        0.36664368417427
C           -4.54439279635301       -4.31736536066959        1.40400718341790
C           -3.58700709495373       -1.63505728307797        1.49539695077840
C           -3.17085892452079       -0.31007622375008        1.48712025149924
C           -2.35045726887911        2.32876376827645       -0.90735167201927
C           -1.36952729600949        1.25542965344943       -1.41290277797682
C           -0.12017385108465        1.17425606594148       -0.61395674780113
N            0.47871889127322        0.05636932630292       -0.21481950404448
C            1.62661031414265        0.04717077776096        0.45026203773423
C            3.49086562809499       -0.96087935040069       -2.46723552947155
C            4.58127814348194       -0.56430670075563       -1.73127968087982
C            5.20974060221046        0.69348513948553       -1.95355150574078
C            6.30980812023697        1.07825008442921       -1.23205495959207
C            6.85076675433128        0.24536870946215       -0.24754134736593
O            7.92185272386998        0.51847249233053        0.50577618204977
C            8.62289755483537        1.72777064104033        0.31853426319823
C            6.23897698108944       -1.02626945786102        0.00226601896941
O            6.84120488731462       -1.75238148918914        0.96614295734787
C            6.37820422995757       -3.05633825041980        1.22780183295202
C            5.13715781259666       -1.40456983855012       -0.72045157314332
C           -0.14872327025654       -1.22375319060216       -0.49462038845224
C           -4.33581519342258        2.89228748780966        0.57838209263601
C           -5.10676697576961        2.56420396851212        1.85470595978534
C           -4.02620148561839        4.38608760208221        0.53364075209407
H           -4.58774156872728        0.69635255433143       -1.39636031799719
H           -6.62687176178527       -0.19463035528077       -2.17991591425986
H           -6.67420049066919       -1.67538107352493       -3.16703496526344
H           -5.23618459311514       -0.62805268572379       -3.21876423676673
H           -4.96259882713887       -3.97957189262382        2.35675602456201
H           -5.02473022155756       -5.24779985891524        1.10836858341487
H           -3.46844353716225       -4.48505628796852        1.51629049152308
H           -3.30817277561896       -2.26326566504975        2.32578566023858
H           -2.59356205435359        0.05347659134955        2.32304990812474
H           -3.10688105266370        2.47918501322402       -1.67736427517072
H           -1.81241715975238        3.26981151713226       -0.78760955568655
H           -1.88119774761633        0.29656641563903       -1.46435862828923
H           -1.10101641469669        1.54167722974676       -2.43843351048535
H           -1.11804061051039        1.66816856641422        1.32571739547749
H            0.41797037888336        2.09304883879232       -0.43750101866130
H            2.07344415580636       -0.87782660000457        0.74659345366665
H            2.10715401184448        0.97435364986555        0.69591748291756
H            3.08961100109267       -0.34555746933427       -3.25100044468424
H            3.03367877797530       -1.92110417240172       -2.31020380562062
H            4.81015596110642        1.34325965504081       -2.71600646899600
H            6.76795844250254        2.03335415650935       -1.43397788172080
H            7.98781179219059        2.59471279202975        0.52257444877603
H            9.02973132128701        1.80092809571413       -0.69364242062321
H            9.44095610121015        1.70441103241244        1.03551221631054
H            7.04699145009961       -3.45799120596140        1.98706675854961
H            5.35405288092697       -3.04751041766820        1.61323452353953
H            6.42655468988471       -3.68346930533253        0.33202800322204
H            4.67072969179109       -2.36241358978930       -0.55553644281241
H           -0.22153096537806       -1.38039017466169       -1.57057282946506
H           -1.14875433866411       -1.25940890638415       -0.05945293268017
H            0.44742136728848       -2.02386620011809       -0.06388795791563
H           -4.98350217014304        2.65631246247856       -0.27407195683006
H           -4.51451859847116        2.82817267718902        2.72515175853890
H           -5.35579652865408        1.50685241241513        1.90401588052737
H           -6.03122866603742        3.13518226392602        1.87931510272079
H           -3.35121554470756        4.65464642169251        1.34050435441366
H           -3.58698250039049        4.68194836797537       -0.41520885175290
H           -4.94919128631709        4.94558038327889        0.66268271224030
H           -1.45744139555838        3.09272320504752        3.15154774353651
