25
 energy: 0.000000000000 xtb: 6.6.1 (8d0f1dd)
C            3.23720163006194        1.16630919979326        0.08434469647475
N            2.29877817382611        0.07527477071623        0.03981603040599
C            2.58028210190900       -1.21425402444508        0.03006176031096
N            1.43813958087363       -1.93419271955128        0.00098261760884
C            0.39035688448383       -1.05887472636071       -0.00790371836672
C            0.93510056364412        0.21347819449412        0.01709077491437
C            0.09450143893243        1.40504303904423       -0.00410947031874
O            0.49712751527797        2.54126714362870       -0.00342325688240
N           -1.25076640035757        1.06271879480407       -0.03085478223738
C           -2.21907211982101        2.15522099834493       -0.05001256985998
C           -1.81739487048744       -0.20012725993278       -0.04692818574614
O           -2.99983886758376       -0.37846417018721       -0.07008878229737
N           -0.92618586207120       -1.30210215599479       -0.03682761578324
C           -1.46982264913417       -2.64643102187190       -0.06029820460571
H            3.71247264356769        1.21471455160235        1.06488849150277
H            4.00791497605742        1.03430808813993       -0.67357694370751
H            2.69910007168542        2.09770118228144       -0.09130154882931
H            3.56654120610678       -1.63682992603973        0.04233140067262
H           -1.67107961066214        3.09322851271934       -0.02552706933167
H           -2.82428953597071        2.09428624779827       -0.95318082946668
H           -2.87644029173232        2.07745725625962        0.81450067533302
H           -1.17061996399332       -3.19584890659852        0.83242232437030
H           -1.14560257411436       -3.17511610292205       -0.95688275822323
H           -2.55549792440841       -2.55659984320617       -0.07459039797972
H            1.38130855184625       -2.94313852034425       -0.01389874181052
25
 energy: -2.998127181943 xtb: 6.6.1 (8d0f1dd)
C            3.23607238166375        1.17217791802966        0.08585448868797
N            2.31559947970926        0.08367908102984        0.03754424320050
C            2.64828888868541       -1.24053023296131        0.03113328636640
N            1.45364452092673       -1.94542893092232        0.00135564287243
C            0.40421417234825       -1.06620068103886       -0.00839848238968
C            0.93315065149813        0.21193213449131        0.01505158046652
C            0.09640381713850        1.38877220881030       -0.00486939749728
O            0.49114939675332        2.55510847868587       -0.00355217070088
N           -1.26850297667708        1.05220026371718       -0.03112586988701
C           -2.23006564479071        2.15213506479137       -0.04976860441427
C           -1.83004427036861       -0.19890640592467       -0.04771977461595
O           -3.02778531346015       -0.37874485499963       -0.07106568851552
N           -0.93651633226337       -1.30142760538428       -0.03734357829127
C           -1.49522172850403       -2.63585008078757       -0.06071768975725
H            3.71005127960269        1.21316966647481        1.06926058553009
H            4.00127184331025        1.03136849427779       -0.67769268270540
H            2.68475935823659        2.09361678992505       -0.09105804218518
H            3.70781839001871       -1.62962325748312        0.04691624798617
H           -1.67201465714427        3.08583026629334       -0.02518941652033
H           -2.83875268479854        2.10306586740233       -0.95279350796245
H           -2.89091901581337        2.08617846628161        0.81453016503769
H           -1.19958680572420       -3.18971881356268        0.83170867904083
H           -1.17438605014952       -3.16927229068105       -0.95700838536291
H           -2.58120193805657       -2.53648501674534       -0.07511911169351
H            1.37478790579505       -2.94801792754762       -0.01289862054239
25
 energy: 2.854044484422 xtb: 6.6.1 (8d0f1dd)
C            3.23198459359241        1.17240944130548        0.08661283391920
N            2.32483223296823        0.08195650942606        0.03317833983282
C            2.71131167190002       -1.26245192047201        0.03263783188205
N            1.47513517211713       -1.95398416039418        0.00253135333990
C            0.42089212721527       -1.07927218934168       -0.00887594168703
C            0.93118838764492        0.20475777895322        0.01246040286116
C            0.09934928622092        1.36687372270308       -0.00559308047208
O            0.47535134064085        2.54775609911218       -0.00379593046412
N           -1.28440048546009        1.04441866397847       -0.03137423564527
C           -2.23914362321048        2.15148808937947       -0.04936764594796
C           -1.83196995760397       -0.19858785951685       -0.04837094879745
O           -3.03436744531529       -0.38334964450361       -0.07215472913544
N           -0.93891034765217       -1.30157383666361       -0.03776105389967
C           -1.52476536240415       -2.62357497233786       -0.06127653762559
H            3.70800655717078        1.21416770455199        1.07038126861431
H            3.99589349288474        1.03439601108599       -0.67990088828170
H            2.67265541370918        2.08841587753583       -0.08904238805545
H            3.84529621444420       -1.59361358152083        0.05224215770772
H           -1.67332808580064        3.08137543098000       -0.02461764199098
H           -2.85218715344445        2.11172277374917       -0.95121591914403
H           -2.90408420172101        2.09458523831160        0.81376040402311
H           -1.24334218398492       -3.18591795728232        0.83115703823567
H           -1.21771550982394       -3.16577878915103       -0.95787030617474
H           -2.61048188239643       -2.50342565750136       -0.07578622848942
H            1.37501441624510       -2.95376417021521       -0.01092425845774
25
 energy: 6.419394988362 xtb: 6.6.1 (8d0f1dd)
C            3.23031004228972        1.17260320480766        0.08648830737381
N            2.32752033191684        0.07796895199369        0.03020622491826
C            2.73336809260272       -1.26923625263864        0.03340153860376
N            1.48621728679532       -1.95742822137496        0.00377843160836
C            0.42863494197460       -1.08807542370529       -0.00874303665045
C            0.93226638145217        0.20003373152266        0.01136259727823
C            0.10244724376608        1.36047740735541       -0.00579915445232
O            0.46822746290198        2.54221334919877       -0.00384571010860
N           -1.28835886020814        1.04400481221701       -0.03151993747568
C           -2.24217309735499        2.15105251550873       -0.04921490056629
C           -1.82905936917833       -0.19979697217686       -0.04868899806713
O           -3.03094089764914       -0.38832883453514       -0.07296754307349
N           -0.93593216355329       -1.30380944849616       -0.03770590054700
C           -1.53944073587049       -2.61916904263709       -0.06150158225602
H            3.70654904461308        1.21630371703492        1.07025019651048
H            3.99489938779986        1.04099628896028       -0.68055871137622
H            2.66823257392551        2.08766601518822       -0.08732906188720
H            3.89887883688882       -1.57331354049781        0.05367544541788
H           -1.67566314666729        3.08006875231109       -0.02433741721975
H           -2.85635192394087        2.11217001257392       -0.95053574105917
H           -2.90802035738338        2.09476307987946        0.81347872525445
H           -1.26955125933970       -3.18613036748044        0.83127626391043
H           -1.24341445677501       -3.16606212163769       -0.95866412638889
H           -2.62417080727109       -2.48247418102055       -0.07616392015974
H            1.37774011620127       -2.95746883017918       -0.00930809344045
25
 energy: 7.093501990291 xtb: 6.6.1 (8d0f1dd)
C            3.22992008053166        1.17240245831033        0.08640171911215
N            2.32774971017318        0.07605372736784        0.02874901012678
C            2.73532393194096       -1.26973679115959        0.03377534307672
N            1.48815056579646       -1.95743440708585        0.00432512708243
C            0.42967109320271       -1.09034495068851       -0.00859089987949
C            0.93310238359334        0.19901178779230        0.01100260245953
C            0.10437564016992        1.36110557855068       -0.00591898078432
O            0.46687586233831        2.54150547506152       -0.00373036496705
N           -1.28793017919031        1.04508235921406       -0.03157765704187
C           -2.24248083892697        2.15066590403372       -0.04920078994167
C           -1.82774433812997       -0.19994570133849       -0.04875029604342
O           -3.02906560333255       -0.38886486972988       -0.07324590540705
N           -0.93431839536243       -1.30481962518648       -0.03752340530486
C           -1.54211803784636       -2.61893591132407       -0.06147186878038
H            3.70546595495329        1.21620251132696        1.07032436836606
H            3.99467757881498        1.04321317764630       -0.68065127757452
H            2.66732530747798        2.08754044061455       -0.08675060300536
H            3.90841861486758       -1.56919146123775        0.05355364331499
H           -1.67713747905446        3.08009990768156       -0.02430674801447
H           -2.85666434803572        2.11088076891802       -0.95046572066135
H           -2.90823426254517        2.09337408335177        0.81350345245223
H           -1.27530893681294       -3.18650925252577        0.83128680367726
H           -1.24895347901290       -3.16639300231332       -0.95868836000745
H           -2.62616437307139       -2.47816040301006       -0.07622379277912
H            1.37727821539702       -2.95777320209786       -0.00879150332847
25
 energy: 7.279384885903 xtb: 6.6.1 (8d0f1dd)
C            3.22977062470926        1.17208818633633        0.08638129798301
N            2.32773548424008        0.07499308090682        0.02744456799936
C            2.73427687334427       -1.26934904216069        0.03426125593218
N            1.48842744683150       -1.95681181947937        0.00467025730458
C            0.42946429867606       -1.09088493746345       -0.00853789991563
C            0.93353734725807        0.19895870102819        0.01069712022945
C            0.10583448565145        1.36228487154542       -0.00607020178816
O            0.46625557282464        2.54207422545793       -0.00358997020722
N           -1.28726202706244        1.04557927409332       -0.03161637335601
C           -2.24236157864050        2.15022481930720       -0.04919089437026
C           -1.82728963324040       -0.19986016009207       -0.04875455100400
O           -3.02830722959030       -0.38857266146293       -0.07334925980785
N           -0.93344045266074       -1.30526798994501       -0.03734349246731
C           -1.54240626632900       -2.61922752170385       -0.06140335580367
H            3.70460008768329        1.21544085206346        1.07050105022688
H            3.99459313029702        1.04382637027350       -0.68055057411683
H            2.66703489631118        2.08727582749022       -0.08651726105201
H            3.91077188887787       -1.56860596485261        0.05328506691031
H           -1.67797358833396        3.08017203844201       -0.02429367869166
H           -2.85660005442152        2.11002665790531       -0.95043275744266
H           -2.90809529456078        2.09246282008024        0.81354091161670
H           -1.27635952572527       -3.18668313099519        0.83131115032337
H           -1.24989903135614       -3.16648529003786       -0.95862949399376
H           -2.62608966293168       -2.47738870201976       -0.07620586675599
H            1.37599687608428       -2.95724190254516       -0.00857315160554
25
 energy: 7.304309727771 xtb: 6.6.1 (8d0f1dd)
C            3.22978950788280        1.17195355487419        0.08639835777310
N            2.32780997347221        0.07477090701476        0.02655664083297
C            2.73324673068128       -1.26903161372998        0.03473688236689
N            1.48830376346198       -1.95637849878510        0.00482647391757
C            0.42910499254240       -1.09064161649880       -0.00856890117458
C            0.93356271634686        0.19927438550420        0.01049829171422
C            0.10646696986043        1.36277930156798       -0.00616929671959
O            0.46596070934064        2.54274971455394       -0.00352080213520
N           -1.28712372177894        1.04544655207568       -0.03163362080549
C           -2.24224699710209        2.15000114135469       -0.04918347881225
C           -1.82743329955460       -0.19975574230189       -0.04873430427991
O           -3.02837281055547       -0.38844374984197       -0.07333856374839
N           -0.93327720355443       -1.30530845727096       -0.03722713693020
C           -1.54205183500535       -2.61942133356189       -0.06135478515794
H            3.70423043957206        1.21491817293703        1.07066237603048
H            3.99475156178261        1.04379485158950       -0.68036100011083
H            2.66703678080853        2.08710403230467       -0.08648108942173
H            3.91084483630918       -1.56938724665763        0.05302144994512
H           -1.67807548127498        3.08013527922971       -0.02427807132706
H           -2.85655322279751        2.10989671303386       -0.95041968668316
H           -2.90802140538469        2.09231178603141        0.81356056072675
H           -1.27578005742303       -3.18675657212025        0.83134451502278
H           -1.24929869772797       -3.16648378667284       -0.95860638724302
H           -2.62570693656803       -2.47775585396693       -0.07617145172965
H            1.37504735460232       -2.95674331849139       -0.00852307590358
25
 energy: 7.325188924310 xtb: 6.6.1 (8d0f1dd)
C            3.22989358035595        1.17193208947830        0.08644565265826
N            2.32806849638153        0.07483678854271        0.02537252924310
C            2.73229027991267       -1.26878508352520        0.03556538277252
N            1.48821498036387       -1.95603543905256        0.00495852873582
C            0.42875307747461       -1.09014576827701       -0.00867526144818
C            0.93341620618230        0.19977604876670        0.01023956552513
C            0.10694124054416        1.36294941179607       -0.00629774976576
O            0.46567431182797        2.54345134274195       -0.00350085304643
N           -1.28736450886426        1.04504237734161       -0.03165603442002
C           -2.24220406797801        2.14990849528202       -0.04917110738978
C           -1.82786352574447       -0.19958805661152       -0.04869286047523
O           -3.02874969410454       -0.38859864459468       -0.07326521944184
N           -0.93338189761995       -1.30525510087334       -0.03707812239061
C           -1.54158173980947       -2.61955423291770       -0.06129588382016
H            3.70392934795743        1.21449590977594        1.07091310357866
H            3.99519326469982        1.04380018098717       -0.68001486760292
H            2.66710527527617        2.08698706515254       -0.08647928726309
H            3.91077274385118       -1.57084272208102        0.05254887058876
H           -1.67784998322319        3.08001845233828       -0.02424865058985
H           -2.85656592802114        2.11011293903511       -0.95041276252584
H           -2.90801868104148        2.09250939369302        0.81359088822009
H           -1.27484644385662       -3.18686388366511        0.83138905164163
H           -1.24836712024418       -3.16648282657999       -0.95859503355351
H           -2.62533059459198       -2.47839533572274       -0.07611472036725
H            1.37408604820784       -2.95624479885857       -0.00849126271622
