  25
        -42.07488531
 C          3.5858949338        0.5263025264       -0.0109720965
 N          2.4055196346       -0.2943330921       -0.0059247449
 C          2.3624743209       -1.6329619177       -0.0099101802
 N          1.0759910497       -2.0517861846        0.0006286071
 C          0.2713611888       -0.9425147276        0.0079305012
 C          1.1088835980        0.1691403627        0.0057280141
 C          0.6007638226        1.5142359664        0.0067476859
 O          1.2410775674        2.5465301752        0.0014365258
 N         -0.8233178477        1.5046794746        0.0049716173
 C         -1.4560037015        2.8121285318        0.0191382204
 C         -1.6053136457        0.4449796308        0.0057178084
 O         -4.8461322392       -1.8430439788       -0.0801510283
 N         -1.0995356489       -0.8298055213        0.0166819244
 C         -1.9282078058       -1.8800484797        0.0383337572
 H          4.1754670848        0.3490509340        0.8898743347
 H          4.2017739784        0.3011247682       -0.8824463699
 H          3.2845962908        1.5731085696       -0.0419716585
 H          3.2179930671       -2.2783591761       -0.0173214248
 H         -0.7810650692        3.5369983476       -0.4334762406
 H         -2.3966062285        2.7669561171       -0.5221616778
 H         -1.6532308640        3.1183786072        1.0469865200
 H         -1.5304792983       -2.8760408037        0.0609201842
 H         -2.9992104440       -1.7133549362        0.0216251197
 H         -5.7669506150       -1.7531239552        0.1657548172
 H          0.7807655761       -3.0175186027       -0.0129320474
