72
 energy: 17.055206491720 xtb: 6.6.1 (8d0f1dd)
N           -2.08204877902324        2.69239836559767        1.77630171278174
C           -1.74975246443658        2.74416223309104        0.43433853130976
C           -2.10578117856382        1.85046950951037       -0.49474703256312
C           -2.93376510462586        0.68700574057338       -0.15936990671381
C           -4.01788434983828        0.31761279452278       -0.96256125993411
C           -4.80532502388655       -0.77526760142792       -0.65181221773397
O           -5.87261227851909       -1.20676647047152       -1.39004665777119
C           -6.25145584647896       -0.46384536243480       -2.51624177035030
C           -4.52219593875620       -1.54848624400535        0.49885855310792
O           -5.34118102139940       -2.62644878619991        0.71174262234995
C           -5.14017598757324       -3.41685828560868        1.85953450923485
C           -3.45884509166554       -1.17204213036666        1.30071859678371
C           -2.67822344512970       -0.06865986938363        0.97841421553816
C           -1.69634426262494        2.02688110218881       -1.93094741864286
C           -0.83467497503469        0.85062539219941       -2.43648547166563
C            0.50460094657089        0.80221365738638       -1.81215680766482
N            0.89099511673706       -0.12308934178647       -0.86612354209108
C            2.25709530119888       -0.09282575374122       -0.45296027873661
C            3.23232893041880       -0.87851319935023       -1.36572909660058
C            4.64166773552603       -0.69952352414885       -0.88712850469456
C            5.34745717859680        0.45680519489175       -1.18009944197652
C            6.64274066898896        0.63434299299501       -0.71667650789573
C            7.25965854080163       -0.34131454320487        0.04791387645542
O            8.52889603068910       -0.27173530189041        0.54601685376977
C            9.29276858212825        0.87366920309930        0.26860143907320
C            6.55008006678494       -1.52439954404054        0.35522464181072
O            7.23429978657184       -2.43190182360387        1.10962088316950
C            6.61435147552362       -3.65098752410617        1.42796912754399
C            5.25573756467265       -1.68012483621122       -0.10627339967554
C            0.16696687403186       -1.35639442942288       -0.71934714254406
C           -5.28202547329887        3.23658444303602        1.76028194474435
C           -5.13112673049029        2.04468490192332        2.31265628692194
C           -5.11416343098806        4.54431414520198        2.43082315594135
H           -4.25038591475258        0.91534554189485       -1.82994295798142
H           -6.52342624290410        0.55866147733814       -2.23342076908334
H           -7.12676092856129       -0.96625832676478       -2.92546774301108
H           -5.46229685322155       -0.43015761540691       -3.27678461106271
H           -5.27344074476814       -2.82551008998148        2.76768581915441
H           -5.90243223000007       -4.19591502983093        1.82547428838194
H           -4.14982104798322       -3.88725787600783        1.88158579277902
H           -3.21692661673156       -1.74059049308080        2.18518281404451
H           -1.86080951868393        0.20686561342686        1.62603275040655
H           -2.59206928319384        2.09977107391014       -2.55540807885188
H           -1.13812460258613        2.95885847338126       -2.04038591843770
H           -1.38668570954064       -0.07602649216201       -2.28969294139671
H           -0.69289222262154        0.99491314843907       -3.51828624227987
H           -1.14736640599376        3.60933627194952        0.16439477916873
H            1.07204673371658        1.71771509709458       -1.83910676449023
H            2.30043718874031       -0.49504607944469        0.56289726767346
H            2.57727959334563        0.95041288109018       -0.42174534107924
H            3.14095366961862       -0.49970721929596       -2.38713523169536
H            2.95847603306660       -1.93530810342300       -1.35797200795480
H            4.89697586250351        1.22461445716164       -1.79053536862944
H            7.17006909842605        1.53965906047872       -0.97204907640279
H            8.82701920829851        1.77910494798569        0.67191929949230
H            9.45838057449637        0.99996521835859       -0.80666429686981
H           10.24854357595417        0.71506772044680        0.76346554208230
H            7.35232351280168       -4.21241514545981        2.00017268846377
H            5.72182671881128       -3.50272190079376        2.04538772576660
H            6.34521765005135       -4.21559762888237        0.52781441759741
H            4.70703784732879       -2.58062476636855        0.12627636464387
H            0.08135906511458       -1.93824564553618       -1.64642739605584
H           -0.83701862573333       -1.13561870925384       -0.35256834701069
H            0.67819445185822       -1.96701295141308        0.02086329598760
H           -5.41394857428298        3.34733193124583        0.69619931184357
H           -2.98996611114539        2.29127402597231        1.94291636205714
H           -5.24363678658663        1.13729493649708        1.74004976697048
H           -4.92827001530654        1.94574516606292        3.36652902861168
H           -4.88414846099106        4.36550048731469        3.46988600036094
H           -4.31281647004714        5.14397786911371        1.98680949258938
H           -6.03110889840080        5.12146824850603        2.32929972512008
H           -1.96937531964261        3.56518419649248        2.25856004694191
