72
 energy: 27.084135137048 xtb: 6.6.1 (8d0f1dd)
N           -2.09485966191513        2.66373398410093        1.80758587932317
C           -1.67960022453077        2.72958258248926        0.49672172964374
C           -2.20773756056173        1.91656979664038       -0.42717027003267
C           -3.01049708996238        0.73653827328928       -0.09906731727851
C           -4.07229398916564        0.33215922368902       -0.91950506502234
C           -4.81330056699581       -0.80428833628889       -0.64723828051758
O           -5.86197633007163       -1.25216092634636       -1.40065712259233
C           -6.26389844278797       -0.48220713037949       -2.49348136235527
C           -4.50439890312220       -1.59646785364492        0.48450963844796
O           -5.29174844647992       -2.70131965839923        0.67462719768876
C           -5.07072725843102       -3.51098923541608        1.80335829881524
C           -3.44532285463908       -1.20936441583833        1.28763779488915
C           -2.72188707306797       -0.05233010019477        1.01466168482174
C           -1.78694060544261        2.09078965527089       -1.85261835249459
C           -0.91748861173771        0.91539692228126       -2.34676985986854
C            0.40488598636518        0.88438744125609       -1.71455750383085
N            0.88717743312398       -0.14069912660694       -0.93175018311614
C            2.22823850848950       -0.10180957964820       -0.45977351587248
C            3.22427133704283       -0.83413397681409       -1.39809668296011
C            4.62806190448458       -0.66487911682444       -0.91820183517306
C            5.32941843683529        0.50293208905464       -1.17277853994583
C            6.62136498903827        0.66916548161250       -0.69403210772605
C            7.23520299939371       -0.32092033177125        0.05605664917131
O            8.50867108968117       -0.25884139461440        0.55854693760110
C            9.26814959668249        0.88789922162667        0.28058188756982
C            6.52298685135549       -1.50595779302041        0.34025631231529
O            7.19989412276131       -2.43175936164848        1.08419980476807
C            6.57061877583250       -3.64605773163207        1.39333580738474
C            5.23633173993760       -1.65632391889954       -0.14413677745462
C            0.13881621733030       -1.34984823902961       -0.73708221292198
C           -5.13251279065010        3.19642786279734        1.56517970534535
C           -5.00830954706475        2.06764246439605        2.24198192111413
C           -4.90949173588309        4.50676717232649        2.16041397269043
H           -4.31666211307074        0.94481153152029       -1.77262359564895
H           -6.56732660051316        0.51933916077525       -2.17331954474132
H           -7.11676611459403       -0.99889831413242       -2.93135453293794
H           -5.47303337123192       -0.39035394230318       -3.24755212896816
H           -5.22147530458728       -2.94610655624247        2.72518112567801
H           -5.81040450188122       -4.31059417611009        1.75856594988701
H           -4.06648496984988       -3.95234863354814        1.81601904149156
H           -3.18352284881003       -1.79568349160141        2.15547229475439
H           -1.91576626342170        0.22943059428513        1.67609025240973
H           -2.67440019855210        2.17182841487142       -2.48654463148419
H           -1.22713710673651        3.02370135345935       -1.95025218437272
H           -1.45585332023208       -0.01840286923861       -2.20338123329657
H           -0.78375067941413        1.08304143364137       -3.42277394980365
H           -0.91653496144437        3.45634976919278        0.19811686217985
H            1.03783010179492        1.73597623038536       -1.86941819705984
H            2.26821495339884       -0.53511676258089        0.53984516394389
H            2.53531924880729        0.93837852135311       -0.35994833023185
H            3.10832659724758       -0.40813497237997       -2.39404766483070
H            2.95749999696853       -1.89440496951577       -1.42667814704947
H            4.87509842505715        1.28248520825215       -1.76466767987481
H            7.15369354491484        1.57528744739188       -0.93153617722154
H            8.80288581849394        1.78758849847535        0.69365022192191
H            9.42493387106338        1.02272337030908       -0.79596704576254
H           10.23295786910749        0.74078329368465        0.76160254563822
H            7.30024821592242       -4.22456594386146        1.96165881679752
H            5.68040781098381       -3.49365872364879        2.01202784589076
H            6.29732571235616       -4.19782433055490        0.48766320553438
H            4.68131522977500       -2.55555506452006        0.08136023867300
H            0.02008466538853       -1.92639087240595       -1.66208872211965
H           -0.85442112082924       -1.13227641498126       -0.33345751405662
H            0.67423155296798       -1.95922598384868       -0.01190271367641
H           -5.39766155093683        3.25038543492160        0.53327311242920
H           -3.07985158891756        2.39183241151034        1.87061638120043
H           -5.17025937455801        1.14394922842692        1.73201697553766
H           -5.04562303022557        2.02755261887711        3.30594266955394
H           -4.59616549704821        4.31382870994502        3.16805068678331
H           -4.17127737869729        5.15183392684316        1.65450529708697
H           -5.89256571469470        4.95827207310495        2.10351295465542
H           -1.88934174254765        3.51496274910392        2.30622907854641
