72
 energy: 15.286536994558 xtb: 6.6.1 (8d0f1dd)
N           -2.04540619349656        2.74134162596446        1.77444202696051
C           -1.73765421484906        2.75898293984030        0.42419077965357
C           -2.09718357755924        1.85288876838802       -0.49939422045162
C           -2.92895620290636        0.68617270044041       -0.15955681537021
C           -4.00610694617283        0.31519011488900       -0.97119462787112
C           -4.80314600458524       -0.76815226391636       -0.65574258889815
O           -5.87731069846326       -1.19343212490988       -1.38494288662435
C           -6.25198035371790       -0.45691701668613       -2.51769177377002
C           -4.52728463825313       -1.53139772346607        0.50165712906711
O           -5.35823814167971       -2.59727777214985        0.72008444602981
C           -5.16126680463460       -3.38188654172850        1.87038932925201
C           -3.46196056621938       -1.16244785679247        1.30309342006424
C           -2.67023488911998       -0.07093134498096        0.97561183843070
C           -1.67984121522321        2.01561690410174       -1.93932480358368
C           -0.81816428287700        0.83720202095758       -2.45874953504434
C            0.52394105564373        0.78368833392556       -1.84197862564142
N            0.88843752907384       -0.11382469424203       -0.85032131978489
C            2.26144799332256       -0.09501415036155       -0.43744701716562
C            3.23489850145843       -0.88810212822269       -1.34820901610903
C            4.64614408240124       -0.71182293250882       -0.87947560026753
C            5.35232173008122        0.44085124153655       -1.18377805675368
C            6.64864714359664        0.62174745587352       -0.72467140322778
C            7.26601355823836       -0.34859407089828        0.04467268103613
O            8.53568399267239       -0.27736372842575        0.54198635898176
C            9.29849196407896        0.86730191276083        0.26489424566719
C            6.55617048896875       -1.52792181743319        0.36188516970120
O            7.24520412968020       -2.43309950709965        1.11505638168266
C            6.62955073295289       -3.65304735816178        1.43511982836093
C            5.26195481903635       -1.68891108498754       -0.09664214481269
C            0.17526582910356       -1.35789587145791       -0.71367682078300
C           -5.28192092661901        3.24957167805407        1.77096753321735
C           -5.18759017100521        2.04748905085290        2.31829372732803
C           -5.17953362962546        4.54885619239751        2.50493797628249
H           -4.22841961436411        0.90435292523443       -1.84707352012299
H           -6.51403869324358        0.57166105929362       -2.25130614183629
H           -7.13285757388526       -0.95784124117139       -2.91714070359396
H           -5.46520291689510       -0.44250555372994       -3.28033719575348
H           -5.28673240001447       -2.78873631638571        2.78155508568665
H           -5.92899247334817       -4.15459709663490        1.84015857976767
H           -4.17532120267888       -3.85952572225777        1.88849514636196
H           -3.22929497088339       -1.72587000902875        2.19340126605510
H           -1.84495919896537        0.19680367412197        1.61487616404440
H           -2.56646356036530        2.08983469796987       -2.57440345426094
H           -1.11043756048669        2.93936679502428       -2.06107594186899
H           -1.36787219704396       -0.09140576639408       -2.31379716432067
H           -0.67850333038139        0.97718786961242       -3.53849813868196
H           -1.12362858076275        3.59224666295615        0.14398158560106
H            1.11029899098118        1.68813950846567       -1.85834942364737
H            2.30423902726612       -0.49733462309866        0.57984268364166
H            2.58900754813877        0.94688620882391       -0.41195585931686
H            3.13361843423468       -0.51749737611323       -2.37112026277819
H            2.95600417535229       -1.94283683141795       -1.33222036721583
H            4.90164212482810        1.20629462462808       -1.79753842563527
H            7.17438491996420        1.52673809596468       -0.98428857395513
H            8.83268324962762        1.77529908544610        0.66371164686482
H            9.46846886692520        0.99170937956356       -0.81010168629226
H           10.25346479875615        0.70799774281794        0.76324072977874
H            7.37100781353480       -4.21075894817845        2.00612104735275
H            5.73568885693642       -3.50965801477522        2.05186094613701
H            6.36171574418099       -4.22057126531658        0.53676537239474
H            4.71213424215067       -2.58693207015300        0.14073650447893
H            0.10438510608183       -1.93961998140556       -1.64263093048070
H           -0.83633312758000       -1.14686043298929       -0.36068240689380
H            0.68356060228043       -1.96612286175348        0.03146278466086
H           -5.44482319163553        3.34916621602680        0.70733292742988
H           -2.90127666173463        2.25909658009486        1.98911353410433
H           -5.29579365915592        1.14335535674878        1.73676586955598
H           -5.01857037949928        1.92589600326601        3.37847258255384
H           -4.98168451964821        4.37670592312859        3.55536747942084
H           -4.35219398655732        5.11539764371637        2.08839684491874
H           -6.07574548613427        5.16693573933784        2.40676818575355
H           -1.97931339342644        3.62839270488071        2.24893543275269
