72
 energy: 8.977140747055 xtb: 6.6.1 (8d0f1dd)
N           -1.78335705041993        3.05635739435457        2.22572055619658
C           -1.70561159169499        2.41456313347101        1.14651824512790
C           -2.82892181388372        2.20077923451265        0.13575398083021
C           -3.28090898947894        0.72930292887921        0.22378363187804
C           -4.26367741334743        0.29005183991277       -0.66673847303968
C           -4.85303981568264       -0.95940608345953       -0.55711488426026
O           -5.84199634199661       -1.43253617412352       -1.37350644289806
C           -6.36189037409153       -0.57157915905706       -2.34634698031188
C           -4.44266680815023       -1.85272838711303        0.45875621914127
O           -5.08985425347915       -3.05759576386864        0.49060093711724
C           -4.76386180151053       -3.94951827392422        1.52474042095258
C           -3.44843956028005       -1.44083895812542        1.32786034546058
C           -2.88558492971910       -0.16521998935668        1.21319545442142
C           -2.16546338632307        2.36259130462288       -1.31750467885468
C           -1.21933332787003        1.21389357714714       -1.82264449926706
C            0.10438455862596        1.12402319731061       -1.13354226088248
N            0.68892471906392       -0.06972805182981       -0.66049175188197
C            2.05633592550051       -0.07622379142922       -0.23652565451959
C            3.01224308471580       -0.61606032568290       -1.32703808050977
C            4.43165313479293       -0.48887392987852       -0.87280145252578
C            5.14621507363816        0.67709865602313       -1.07872995493852
C            6.45107452895051        0.80115555822187       -0.62004414257899
C            7.06145720935459       -0.23690700763401        0.05990786474787
O            8.33707451024472       -0.21899711430702        0.54174305522233
C            9.12049195008094        0.92466459144484        0.31113384633231
C            6.33884957522893       -1.42762029842945        0.29023700850296
O            7.01684032967694       -2.39660311156268        0.97234546307228
C            6.37699891188163       -3.62043549535143        1.22072800789591
C            5.04088965288494       -1.53309264172970       -0.17547116531865
C           -0.01404237146783       -1.32725934516975       -0.65030509637722
C           -4.13653136012167        3.00390546942628        0.67789911389062
C           -4.60269489815699        2.44565339469236        2.00206782311487
C           -3.81768467722431        4.49749041740769        0.91600551301184
H           -4.57852899692819        0.96203287820328       -1.44444926187948
H           -6.77494788177736        0.33647846246625       -1.89358056443136
H           -7.15954630867335       -1.13244482448669       -2.83342243181044
H           -5.60177311417663       -0.29221756819155       -3.08512561077645
H           -4.95753542486436       -3.51150165827457        2.50813594817754
H           -5.41000733679269       -4.81585618384755        1.39176034323914
H           -3.71593812448958       -4.26655522631780        1.47423104351331
H           -3.10751202993476       -2.10057230885625        2.11313345302608
H           -2.12768549676973        0.11846421844713        1.92889705488570
H           -2.96411018668967        2.47162781286185       -2.04844881774044
H           -1.54688053495485        3.26395450051749       -1.37254928053620
H           -1.68989970798553        0.23530180524579       -1.75491330031232
H           -1.15242892769756        1.44158916831507       -2.89932827705327
H           -0.74189957433960        2.00429739478474        0.87870984970130
H            0.76500150731039        1.96525440778887       -1.17411730875670
H            2.19800909899776       -0.68622584290638        0.66892459603643
H            2.35853389154013        0.94344031689316       -0.00016336515788
H            2.85562879636070       -0.04612783069905       -2.24305518225734
H            2.76980136766951       -1.66169399034168       -1.53521694765480
H            4.69183535600311        1.49527359744549       -1.61437413598241
H            6.99561720033216        1.71431218959090       -0.80094184118119
H            8.68958811182698        1.81312295134285        0.78310967841698
H            9.26041669902222        1.11361437554562       -0.75956899208514
H           10.08705352690323        0.71780531858514        0.76246702186885
H            7.09800327542876       -4.24705089296585        1.74784074721826
H            5.49520240815239       -3.48750591629931        1.85587094806007
H            6.09014489653193       -4.11325847657475        0.28700707025698
H            4.48214900416260       -2.44039019445246       -0.00661788204928
H           -0.16983223060098       -1.71814728862955       -1.66250222316055
H           -0.99542018647833       -1.22532253100871       -0.18057097067090
H            0.55237759003253       -2.06633749692172       -0.07622777863784
H           -4.93261214438992        2.92426614855788       -0.07033271926646
H           -3.75568634038921        2.37896410485929        2.67057974456513
H           -4.99454293003261        1.45551371609188        1.92172518404487
H           -5.38855088916695        3.07085203152080        2.41746461289602
H           -3.14037314585609        4.59583583739641        1.76080714859657
H           -3.34186062755054        4.98328147099748        0.06905507119350
H           -4.72415769829631        5.04690116465332        1.12684023853050
H           -0.90243549462229        3.10360087576866        2.71750466558886
