72
 energy: 55.919923081664 xtb: 6.6.1 (8d0f1dd)
N           -2.01502855634349        3.22220204758167        2.06398392068626
C           -1.75388616768730        2.64713976572340        0.96638334636616
C           -2.72840954260785        2.18695440904211       -0.06128141592953
C           -3.21253846656610        0.77919836622058        0.11134382782494
C           -4.20847994078219        0.32244426553377       -0.75899473980403
C           -4.84439644698413       -0.89746712459101       -0.58694721719257
O           -5.84820214993987       -1.36991851632443       -1.38949286495151
C           -6.32535804184030       -0.53473231690663       -2.40003726328328
C           -4.47694676503007       -1.75933023989746        0.47455558221461
O           -5.17484021878195       -2.93839685392584        0.56715787791755
C           -4.87008773670122       -3.79711602379441        1.63679154817608
C           -3.46161084109855       -1.34439517127825        1.31970044626762
C           -2.84681028624385       -0.09555753876014        1.14187196855050
C           -2.08983948837013        2.29538963394824       -1.51392362639943
C           -1.12681147246465        1.13238351370814       -2.00662999367039
C            0.21332079742940        1.07222733101521       -1.37216386938678
N            0.76804319448935       -0.09904691933759       -0.80915288501568
C            2.12002995727020       -0.10194205170366       -0.33303310855873
C            3.09449477772821       -0.69219257323643       -1.37737293140951
C            4.50666643431688       -0.54882464601832       -0.90169803008546
C            5.21558991757430        0.61919755617939       -1.11470281849082
C            6.51516042684004        0.75660460288848       -0.64324922512476
C            7.12577190611349       -0.26586222085649        0.06048790530195
O            8.39858066052143       -0.22838434198409        0.55275554118951
C            9.17303919818747        0.91794432378015        0.30194065319055
C            6.40735975550846       -1.45663281243572        0.30281027593385
O            7.08080024102650       -2.41071511973814        1.01242729859037
C            6.44130163389439       -3.62927245008692        1.28701655221424
C            5.11531881762573       -1.57636193889658       -0.17947124413823
C            0.03760847326757       -1.34009176191705       -0.69523425515431
C           -4.41025944693887        3.02950951771924        0.91501641151366
C           -4.63487315957045        2.13484292363629        2.07571479700087
C           -4.22273170114143        4.46308917838063        1.31943222473371
H           -4.49119090574328        0.97522631213153       -1.56463751235073
H           -6.70074384307383        0.40897122849369       -1.98862195296481
H           -7.14237025639473       -1.08221534799733       -2.87138584717378
H           -5.54465893399425       -0.31741387097681       -3.13978893076936
H           -5.04490509171588       -3.31081934550663        2.59994912852976
H           -5.54284531199922       -4.64994094893098        1.55119875703578
H           -3.83185919956489       -4.14862769751765        1.60012452222237
H           -3.14280157280726       -1.98659545632011        2.13091546864182
H           -2.06985134332882        0.18932258041029        1.83928843616139
H           -2.89181795231607        2.38322058409727       -2.24049202493884
H           -1.47621760052446        3.19419168223008       -1.59735065990430
H           -1.59871765513058        0.16173991007323       -1.91789314268311
H           -1.07026188562729        1.35189503164918       -3.08970712079658
H           -0.72126708892142        2.53327579795728        0.62245200577187
H            0.88550537420545        1.89955509578644       -1.42225736906390
H            2.26293189864180       -0.68281362907750        0.58781974825255
H            2.42398123233353        0.92299452254792       -0.12459813737402
H            2.95459108271547       -0.16201973882711       -2.31888620093675
H            2.85833012042148       -1.74920505319543       -1.54469613184678
H            4.76221027701270        1.42522419072684       -1.66922660904546
H            7.06052457648046        1.66629855561330       -0.83629261826067
H            8.72986555013002        1.81066512549550        0.75169202496994
H            9.31988176903482        1.08439178860180       -0.77172596989850
H           10.13915759901940        0.73975771310435        0.76339641920383
H            7.15651001325792       -4.24558825549914        1.83593787779357
H            5.55701389120765       -3.48007222125163        1.91413911594915
H            6.16061495479400       -4.14300199345931        0.36268038681426
H            4.56141059326994       -2.48447194551985        0.00159791432287
H           -0.11183263430286       -1.80867587886350       -1.67512487495855
H           -0.95020310996185       -1.19446372556856       -0.24641137111786
H            0.60099845401493       -2.03344175568547       -0.05997745169499
H           -5.16454092019964        2.96107466663376        0.14248370530877
H           -3.64881745187768        1.91082529299242        2.49394171239305
H           -5.08397689223728        1.20421417465224        1.83253480733539
H           -5.34526867600707        2.64704284336691        2.72774652242863
H           -3.67766287748850        4.51932771503301        2.24880818033896
H           -3.68986043936601        5.08429060607431        0.59791997210507
H           -5.20808204552120        4.89118108404371        1.43211746135112
H           -1.18128842157866        3.45929547916407        2.58705366377968
