72
 energy: 32.565845772202 xtb: 6.6.1 (8d0f1dd)
N           -1.93041696451117        3.17578566237973        2.15364516253412
C           -1.74733798337079        2.57030705461984        1.05890163591614
C           -2.80982746869759        2.22432658235318        0.03489723833639
C           -3.24551721265711        0.76445847354032        0.16008241433040
C           -4.23190229047590        0.31200322471789       -0.72051281087640
C           -4.84898106000153       -0.92187275715567       -0.57447586460809
O           -5.84679116517958       -1.39453200341968       -1.38236611032758
C           -6.34018392551467       -0.54871224133633       -2.37847341337145
C           -4.46463724652875       -1.79683319063262        0.46884149796681
O           -5.14202280313142       -2.98657540764844        0.53812740406432
C           -4.82639493270259       -3.85833265132462        1.59358730285760
C           -3.45760279681643       -1.38162326061640        1.32337168907454
C           -2.86553628740659       -0.11913284093708        1.17141267905297
C           -2.13307425431412        2.33336984853499       -1.43291151105766
C           -1.17199275916351        1.18174339318767       -1.94163415004328
C            0.16579531410230        1.10197352270040       -1.28022643196266
N            0.73425789639093       -0.08594613260138       -0.75050899282194
C            2.09287937023605       -0.09345213518051       -0.29472835066744
C            3.06170971028300       -0.66158607225427       -1.35847279665206
C            4.47664036960124       -0.52468252966919       -0.89128226435126
C            5.18815318123525        0.64270142335431       -1.10038314694288
C            6.48972424239842        0.77470920763705       -0.63366125714177
C            7.10015413929081       -0.25426742272366        0.06031104660347
O            8.37425501224245       -0.22416979092858        0.54884408435028
C            9.15186892037381        0.92137181713211        0.30578828338560
C            6.38017215146290       -1.44509747793300        0.29704436636353
O            7.05522359227063       -2.40522517905210        0.99661746096756
C            6.41503822442989       -3.62557424561074        1.26086999734473
C            5.08593529287016       -1.55898717268057       -0.17928425275560
C            0.01576683799908       -1.33500032755128       -0.67718148588711
C           -4.26925181185913        3.00247287442736        0.79410027385358
C           -4.62612057594234        2.25342580944949        2.04359237748755
C           -4.06162869083194        4.47636153712668        1.14619727402470
H           -4.52689469282298        0.97110204405930       -1.51646236080495
H           -6.73084813027248        0.38109593887385       -1.95022984007007
H           -7.14936005129964       -1.10172969717668       -2.85630596053157
H           -5.56653246040108       -0.30660604325497       -3.11716061646177
H           -5.00820056179835       -3.39101203457395        2.56508638646502
H           -5.48734722360891       -4.71801568571018        1.49074242668460
H           -3.78373725131002       -4.19416953408068        1.54961914431004
H           -3.13001422532901       -2.03144608877201        2.12431924707647
H           -2.09769223140299        0.16666629649481        1.87713272262189
H           -2.92681533207151        2.43010720376907       -2.16769317131814
H           -1.50833154574721        3.22747585678610       -1.50564850049665
H           -1.63291416757191        0.20302456471936       -1.85702121220048
H           -1.13783119572613        1.40878804655244       -3.02968394260009
H           -0.73047201727702        2.33335442760653        0.74879001335722
H            0.84063408998260        1.92765219490568       -1.32327271798423
H            2.23820985804707       -0.68916361460840        0.61969689412726
H            2.39773467003723        0.92862067941381       -0.07361385147069
H            2.91481478310635       -0.11449158932175       -2.28939471739068
H            2.82333777702317       -1.71385409639734       -1.54436787151192
H            4.73430051597935        1.45361907129331       -1.64722923137151
H            7.03540736709309        1.68573437072346       -0.82048174200434
H            8.71361122931494        1.81259683620551        0.76417404692120
H            9.29619208082873        1.09657777338348       -0.76683104235557
H           10.11809443305566        0.73220171370479        0.76324185323865
H            7.13118888468650       -4.24722234030477        1.80184348760297
H            5.53164181999028       -3.48177590639424        1.89086447926489
H            6.13222870598653       -4.13068414962364        0.33253940922453
H            4.53011788521209       -2.46690961965913       -0.00400173036438
H           -0.13571486835955       -1.77407408543990       -1.67012524645820
H           -0.97047072098960       -1.20724314634584       -0.22137864596599
H            0.57936084634626       -2.04670391944097       -0.06337183021934
H           -5.07363402217349        2.93376156557765        0.05442002619504
H           -3.71533284136890        2.06696048808921        2.61018446973713
H           -5.05347494053992        1.29765054534278        1.86491951868695
H           -5.37884456732045        2.81931377673390        2.59120415092678
H           -3.46709925734251        4.55940644131983        2.04772528123270
H           -3.55091167929862        5.05415179773459        0.37882601855946
H           -5.02115902849166        4.94665178811751        1.30069774442671
H           -1.06736129048450        3.32343816187189        2.65599874207389
