72
 energy: 15.621599447347 xtb: 6.6.1 (8d0f1dd)
N           -1.83515736336264        3.09793572997525        2.20933854125852
C           -1.72325632511542        2.46958508636539        1.12314710785695
C           -2.82986332368945        2.21312525385612        0.10407470106035
C           -3.26974976857728        0.74147391233461        0.20283113022740
C           -4.25333729050045        0.29743369324728       -0.68468660433315
C           -4.85220796740198       -0.94696768469786       -0.56276501168073
O           -5.84431481474813       -1.41991039694518       -1.37617608595681
C           -6.35473013054144       -0.56373832667070       -2.35695346985224
C           -4.45045287127726       -1.83433274145781        0.46229894368802
O           -5.10775759220563       -3.03437938609194        0.50685101667567
C           -4.78444894195715       -3.91929253144481        1.54814113031400
C           -3.45206047153484       -1.42099623695117        1.32661373082338
C           -2.88007301506805       -0.14902416503209        1.19975079792087
C           -2.15810178530829        2.35674724331496       -1.35418617967272
C           -1.20604959874465        1.20912431447308       -1.86301793933996
C            0.12438489263954        1.11859811432935       -1.18451423385393
N            0.70321352331315       -0.07457986031035       -0.69065314298011
C            2.06809661002430       -0.08248649650444       -0.25608249423962
C            3.02862499530006       -0.63125520161596       -1.33780244373869
C            4.44666807175883       -0.50080463617326       -0.87913284686555
C            5.16025459460250        0.66565214025625       -1.08591567647268
C            6.46406354545305        0.79234219391766       -0.62458251109614
C            7.07440906570601       -0.24274319722078        0.06006402420086
O            8.34947929043404       -0.22063854736095        0.54425893057645
C            9.13092277210845        0.92374711162071        0.30950375876034
C            6.35274940627928       -1.43363279948657        0.29224666812425
O            7.02964634196702       -2.39954523291802        0.98052114652173
C            6.38951099337648       -3.62213818889722        1.23425808397953
C            5.05602521753974       -1.54177615224734       -0.17713286838559
C           -0.00469783940287       -1.33001606065941       -0.65871693062931
C           -4.18010361972144        2.99349550932976        0.71108965103789
C           -4.61477801405168        2.37913041343612        2.01568422560270
C           -3.90082439608000        4.48865644945333        0.99034584350971
H           -4.56140847213105        0.96494885912626       -1.46877201624488
H           -6.76030907464309        0.35174112130241       -1.91228647149081
H           -7.15615609283513       -1.12195723358881       -2.84107808902372
H           -5.58966694755487       -0.29681418006077       -3.09547725379527
H           -4.97390084527421       -3.47135487880248        2.52767252048117
H           -5.43517050949604       -4.78387893201862        1.42580011049087
H           -3.73811001695701       -4.24200587042799        1.49923922690267
H           -3.11532514716214       -2.07752849236044        2.11702900933786
H           -2.11936732614803        0.13609024674876        1.91228453198036
H           -2.95243680488575        2.46170670174490       -2.08881734244973
H           -1.53466372643823        3.25411617452102       -1.41634399943522
H           -1.67025241248334        0.22920312596790       -1.78961983463976
H           -1.16702652622770        1.44528602581575       -2.94342725059123
H           -0.73813445303461        2.11772967344768        0.84253990919029
H            0.79076855238893        1.95372266547018       -1.22389712962597
H            2.21213037840092       -0.68804502857425        0.65276600063964
H            2.37153011890362        0.93772687386830       -0.02434071964626
H            2.87522296230271       -0.06870104891364       -2.25869624011009
H            2.78767359948259       -1.67899307280709       -1.53922590778327
H            4.70605453335200        1.48142959694257       -1.62528460867458
H            7.00916001274727        1.70482112932692       -0.80687121895868
H            8.69757636667937        1.81319587409436        0.77686493887707
H            9.27238179417062        1.10804742533472       -0.76189224478033
H           10.09735443274796        0.72279475446173        0.76285510579754
H            7.10844434838901       -4.24754469187392        1.76619948376078
H            5.50714774757880       -3.48519244699823        1.86758081516716
H            6.10414100675281       -4.11894610206204        0.30224578165570
H            4.49824408500366       -2.44929700472240       -0.00667394982420
H           -0.15869996191949       -1.73749299324147       -1.66460193160957
H           -0.98821592340958       -1.21915326255290       -0.19465011790614
H            0.55898418480492       -2.06024954703851       -0.06864176643297
H           -4.98181088368873        2.92243235932174       -0.03165774885824
H           -3.75103667157820        2.27172165534625        2.65870117905273
H           -5.01590004808606        1.39894912653545        1.90420287406680
H           -5.39171370233204        2.98710654892765        2.47256267972691
H           -3.25065068860656        4.58502846669169        1.85547113680684
H           -3.41137936807919        5.00878343886955        0.17106179035860
H           -4.82528965018383        5.01283341038718        1.18392014294059
H           -0.95810358897345        3.17833946107968        2.70357690222422
