72
 energy: 72.428378288823 xtb: 6.6.1 (8d0f1dd)
N           -2.03919167388712        3.12984319121371        1.99757631709678
C           -1.73598243760130        2.68933059320995        0.85165479147435
C           -2.59335066623833        2.10897621863569       -0.17262948499739
C           -3.17398691849902        0.78730492293579        0.05811772065043
C           -4.18368526587421        0.32862650562419       -0.80082155308439
C           -4.83882089748831       -0.87359662141172       -0.60066466562251
O           -5.85005958460521       -1.34562078405298       -1.39758329833195
C           -6.31049797569851       -0.52124632067599       -2.42172054157285
C           -4.48744722553485       -1.72126335908405        0.47900120782989
O           -5.20651140091587       -2.89011123507837        0.59384911143484
C           -4.91472558496330       -3.73500332499305        1.67756394992815
C           -3.46427999723013       -1.30789858458105        1.31540817054804
C           -2.82685545195092       -0.07604194842459        1.11339025040206
C           -2.02230918304592        2.24820543176752       -1.59400894802194
C           -1.07510674713278        1.07010177870214       -2.06903632336350
C            0.25251869920101        1.01639124480116       -1.42408319709954
N            0.80492273544395       -0.12319783219583       -0.86200080320795
C            2.14981971816908       -0.10976092918702       -0.36826708080642
C            3.12677009299623       -0.72373772753277       -1.39294406086283
C            4.53697810836604       -0.57333390143992       -0.91036195114744
C            5.24284495201877        0.59509747960053       -1.12884889656544
C            6.54063509367389        0.73807101556199       -0.65341514303603
C            7.15160351229000       -0.27754223103873        0.06041354901674
O            8.42276145477641       -0.23320219869734        0.55576374240615
C            9.19442766953480        0.91376294269511        0.29771579433672
C            6.43466852282309       -1.46828983895417        0.30927863298348
O            7.10658334627671       -2.41590293302022        1.02789224625778
C            6.46829024100442       -3.63305731259104        1.31237484258738
C            5.14458172337988       -1.59403977286335       -0.17790135039307
C            0.05985223480917       -1.35061215310589       -0.70965649777265
C           -4.60687746481024        3.07213507322740        1.06770688708790
C           -4.65125969703953        2.03733377366644        2.10254545436289
C           -4.37957746861691        4.45109054402138        1.51006564036855
H           -4.45536492726302        0.97641015836519       -1.61500475861842
H           -6.67008959837315        0.43603256560963       -2.02745970926101
H           -7.13539273744909       -1.06252825324389       -2.88665968596565
H           -5.52406991980010       -0.32864287186553       -3.16336413771386
H           -5.08301644337586       -3.23033166182984        2.63229767817611
H           -5.60018645377248       -4.57961189473316        1.60729533529298
H           -3.88151280604702       -4.10393603886766        1.65048795008934
H           -3.15362247192801       -1.94146990477663        2.13656508739696
H           -2.04008373986350        0.20787507777156        1.80061073249272
H           -2.84476031161733        2.33079142908475       -2.30557766928626
H           -1.43227592367052        3.16050593899197       -1.68860989168035
H           -1.58696650022289        0.11610722034078       -1.98106333017708
H           -0.97371614408005        1.29184840770280       -3.13640623399900
H           -0.71532598828216        2.73869720402221        0.45511485018954
H            0.91876675146615        1.85442265250896       -1.51728550315154
H            2.28666755871734       -0.66390258198901        0.56396490423806
H            2.44878939320152        0.92001757922835       -0.17766932167344
H            2.99383022775670       -0.21191053632298       -2.34568283773085
H            2.89230984841934       -1.78545648180996       -1.53835271812311
H            4.79005468817193        1.39600808679280       -1.69142316372467
H            7.08485569494750        1.64651668275199       -0.85404738298826
H            8.74615425296723        1.80776275229886        0.73896811042921
H            9.34353155240101        1.07177059585743       -0.77684838099838
H           10.16048907776537        0.74588468894574        0.76315945471243
H            7.18403490862059       -4.24279335914935        1.86817785590718
H            5.58310119074033       -3.47980647800498        1.93690349861376
H            6.18948735778784       -4.15540591456277        0.39217537870940
H            4.59225772327663       -2.50188437363060        0.01028020172424
H           -0.08832684664129       -1.84242093749319       -1.67843697264803
H           -0.92855104624790       -1.18168022771663       -0.26870741665548
H            0.62100295883800       -2.02449302647380       -0.05355339364935
H           -5.25078548344366        3.00461408712807        0.22088486704179
H           -3.60273803010175        1.89741783654249        2.34416843291916
H           -5.09633270205137        1.11645690174641        1.81204973965672
H           -5.29561291417366        2.47566825852029        2.86470046628529
H           -3.87414837974121        4.46112541000687        2.45853499602707
H           -3.82148464441816        5.10000108729939        0.82508542844298
H           -5.38062612682108        4.85228354162766        1.58639279251500
H           -1.29789493761440        3.56437902761609        2.53390813172513
