72
 energy: 23.329787921801 xtb: 6.6.1 (8d0f1dd)
N           -1.88343439629654        3.13789568334359        2.18560208319776
C           -1.73700730339965        2.52183245494163        1.09378204486330
C           -2.82460344906276        2.22272397074945        0.06999808927584
C           -3.25824244276181        0.75391953508672        0.18179981562159
C           -4.24283369099627        0.30506066904713       -0.70240335682391
C           -4.85083286561057       -0.93429179271370       -0.56845608376857
O           -5.84582149123269       -1.40713080467242       -1.37907911320395
C           -6.34747779611452       -0.55606967185766       -2.36763599076950
C           -4.45780176491443       -1.81557455162937        0.46572019731206
O           -5.12507362031590       -3.01065362071104        0.52273152650800
C           -4.80520130793454       -3.88893503802480        1.57107972404918
C           -3.45515780850258       -1.40097504680880        1.32513703466539
C           -2.87344859502562       -0.13325400343121        1.18582086005716
C           -2.14709946207454        2.34683713802760       -1.39316134366750
C           -1.19002732440931        1.19790136641661       -1.90328304237228
C            0.14470137934833        1.11120110094068       -1.23306161006053
N            0.71838889427357       -0.08003474248471       -0.72071732548172
C            2.08028845379573       -0.08833441114347       -0.27533767191756
C            3.04517683753328       -0.64638587024140       -1.34828491274765
C            4.46171769338201       -0.51272188357145       -0.88532060178141
C            5.17429072855913        0.65421741178085       -1.09308530768456
C            6.47696825128807        0.78361398464302       -0.62898145412509
C            7.08735206751797       -0.24848085095637        0.06022244000732
O            8.36192179615033       -0.22232632516267        0.54663234574605
C            9.14140534656813        0.92268571172704        0.30769797896051
C            6.36655983421458       -1.43936605168031        0.29449915193453
O            7.04246582613921       -2.40239188457557        0.98858501617590
C            6.40222338285580       -3.62384303355637        1.24757364388499
C            5.07108348695496       -1.55037311017151       -0.17841881762053
C            0.00536390387120       -1.33260603424107       -0.66784533036779
C           -4.22238312337930        2.99525871327880        0.74921371390112
C           -4.62238554979065        2.31555001566098        2.02886262559994
C           -3.98174343539290        4.48249668060078        1.06659070833807
H           -4.54437791672776        0.96823097872973       -1.49256850572736
H           -6.74565172220940        0.36663255211284       -1.93114905566387
H           -7.15272658102252       -1.11170046502567       -2.84873109277476
H           -5.57786019148346       -0.30154099978029       -3.10607438997759
H           -4.99076867523224       -3.43131674217718        2.54666779391092
H           -5.46077357254952       -4.75137296355416        1.45875296810049
H           -3.76059086201668       -4.21784421747982        1.52438623969572
H           -3.12298203594728       -2.05427322474578        2.12082659052793
H           -2.10955395528898        0.15243614771933        1.89523438671072
H           -2.94004858616271        2.44754034431497       -2.12873536295183
H           -1.52192884440574        3.24196437180617       -1.46105159075962
H           -1.65149533903553        0.21823606960776       -1.82398582842740
H           -1.15922040177036        1.43235409304734       -2.98865449843949
H           -0.73439872519668        2.22657861187373        0.79826044720304
H            0.81601867786594        1.94094731402109       -1.27352419035328
H            2.22539639909397       -0.68943689362041        0.63626443730678
H            2.38466582006437        0.93273900696515       -0.04874885675194
H            2.89501504118481       -0.09138166401036       -2.27415022563176
H            2.80559729243986       -1.69635215271696       -1.54230874362694
H            4.72024175470199        1.46758078274433       -1.63614757720187
H            7.02244443318900        1.69536148739043       -0.81330407382499
H            8.70560647131968        1.81305524506660        0.77053614168004
H            9.28432816042047        1.10239560258775       -0.76432844290643
H           10.10772163704504        0.72766517758025        0.76310775383180
H            7.11950257844757       -4.24766140671657        1.78413450543253
H            5.51931634306097       -3.48329215974971        1.87916711964186
H            6.11820648393756       -4.12471383178516        0.31733896115464
H            4.51427264239289       -2.45809821475338       -0.00567549510931
H           -0.14735641304878       -1.75607118327911       -1.66728644006769
H           -0.97967599405226       -1.21338157085329       -0.20814725371074
H            0.56889597906621       -2.05347300683115       -0.06529208927763
H           -5.02835825368583        2.92657940172261        0.01032382292527
H           -3.73824679427277        2.16676636482804        2.63920888647108
H           -5.03572399678136        1.34684303477836        1.88415063495218
H           -5.38864241658499        2.90354532908283        2.52986454539021
H           -3.35946875541874        4.57344921652586        1.95071258709527
H           -3.48110457456805        5.03305097244151        0.27380892676311
H           -4.92437223839012        4.97941862907509        1.24123234393868
H           -1.01262643400023        3.25130289522329        2.68395718676307
