72
 energy: 65.952055837605 xtb: 6.6.1 (8d0f1dd)
N           -2.02389669891190        3.18798167495403        2.02647899559298
C           -1.74301163249505        2.66960425233608        0.90905374909470
C           -2.66039804417132        2.14879415672839       -0.11919537611927
C           -3.19364160928854        0.78539544763020        0.08454698096241
C           -4.19621425882975        0.32677414686661       -0.77990600331595
C           -4.84151541999624       -0.88475170325092       -0.59364427034535
O           -5.84879052677372       -1.35740760306375       -1.39352157705088
C           -6.31773409859735       -0.52759036322777       -2.41075980621151
C           -4.48246527511466       -1.73979479888600        0.47694089216681
O           -5.19076507462498       -2.91409966200063        0.58078591760592
C           -4.89224616634390       -3.76596492354647        1.65749766053843
C           -3.46335061939095       -1.32545272658268        1.31764313029040
C           -2.83695977906017       -0.08491134529704        1.12711491070062
C           -2.05714232969125        2.27206095222232       -1.55434663729742
C           -1.10108627470279        1.10179797512588       -2.03737726998276
C            0.23533157477579        1.04809636886722       -1.40456507615536
N            0.78582820169308       -0.10854593128293       -0.83734791766859
C            2.13457393712726       -0.10581687289024       -0.35132201286414
C            3.11055059460716       -0.70783647181596       -1.38567855676258
C            4.52177759402207       -0.56099817283992       -0.90614461845188
C            5.22921158394731        0.60718204174213       -1.12177508452837
C            6.52790925324709        0.74732760738447       -0.64827030499603
C            7.13870380355290       -0.27171111737788        0.06048076033997
O            8.41063107676768       -0.23065194034375        0.55430509869403
C            9.18368254848906        0.91606394433871        0.29975428558488
C            6.42104546333319       -1.46253153797327        0.30588722831156
O            7.09362352656480       -2.41335124259185        1.02014757559161
C            6.45463229047594       -3.63114764692932        1.29982470597798
C            5.12997426408735       -1.58521924388327       -0.17905542450525
C            0.04862982316183       -1.34419265850068       -0.70305131753175
C           -4.50466452504529        3.05057515473664        0.99334532585558
C           -4.64366838274971        2.08136794388109        2.09324931705726
C           -4.30211926921297        4.45704744417201        1.41428253315509
H           -4.47272862305709        0.97672671740928       -1.59014032236043
H           -6.68519529291208        0.42294257731038       -2.00778835243194
H           -7.13874860727485       -1.07205939848726       -2.87879694629338
H           -5.53402389185657       -0.32260357293450       -3.15142312767180
H           -5.06373547416527       -3.27058161841694        2.61655535885046
H           -5.57110964469391       -4.61499772614471        1.57994590330871
H           -3.85642627499132       -4.12603172706821        1.62550959699059
H           -3.14893464419192       -1.96343041258894        2.13403306209843
H           -2.05470025751525        0.19900417211367        1.81946673937297
H           -2.86876184578203        2.35661687286677       -2.27378213921404
H           -1.45563407434478        3.17754867977827       -1.64389365358562
H           -1.59259502834904        0.13923569406510       -1.94894603645659
H           -1.02219426611904        1.32271639146230       -3.11228613481065
H           -0.71386673683990        2.63120186722529        0.53750745725088
H            0.90468106676445        1.87925972202046       -1.47059074296985
H            2.27459405977613       -0.67550919344043        0.57413895563503
H            2.43677918776775        0.92111409862112       -0.15060944676751
H            2.97433190313944       -0.18673757392900       -2.33279675242844
H            2.87555519097585       -1.76727250700633       -1.54251943233716
H            4.77623612654215        1.41062484932531       -1.68046124902522
H            7.07280550779218        1.65635449802841       -0.84501358040165
H            8.73796267975967        1.80945382264509        0.74519082654494
H            9.33168174292552        1.07818215625935       -0.77438273733857
H           10.14978035211481        0.74320150479833        0.76319521406940
H            7.16986534252685       -4.24432137926287        1.85239247304468
H            5.56989129040186       -3.47969693218740        1.92557746376637
H            6.17492124826668       -4.14918608725358        0.37754678912846
H            4.57694309225951       -2.49330713746033        0.00530844455824
H           -0.10012636022888       -1.82529763190039       -1.67696092657615
H           -0.93945491258553       -1.18803283621745       -0.25764206728731
H            0.61178867636943       -2.02800682024293       -0.05745841628979
H           -5.20593391188591        2.97958067772690        0.18454066463552
H           -3.62364540188922        1.86587537128962        2.42080137651092
H           -5.09565997383049        1.15972393023970        1.82067796875798
H           -5.32457819351466        2.56043386806660        2.79952555863394
H           -3.77680503426772        4.49178187809902        2.35339146249746
H           -3.75778638720294        5.09305445584317        0.71072966564541
H           -5.29672815288381        4.86953218461468        1.50717988253499
H           -1.23258038916466        3.51916326182298        2.56568301870309
