72
 energy: 19.375077933318 xtb: 6.6.1 (8d0f1dd)
N           -2.15557751563291        2.68059621112239        1.77238134276993
C           -1.74182056215234        2.73037841075937        0.45943844108209
C           -2.14094872651142        1.86574259346684       -0.47437624323471
C           -2.96088192128161        0.70266037435633       -0.14082729460981
C           -4.03737472442408        0.32168009837208       -0.94900585267470
C           -4.80958246344759       -0.78585055176905       -0.65006256144494
O           -5.87033505136006       -1.22252997291466       -1.39436666718252
C           -6.25566429177220       -0.46978323929190       -2.50889906810207
C           -4.51641268515226       -1.56602860626863        0.49372942439827
O           -5.33012245016540       -2.65066726489086        0.70312173078677
C           -5.11812154680715       -3.44875570957917        1.84030100106550
C           -3.45474080578493       -1.18521031832378        1.29640831172996
C           -2.69324286704330       -0.06310705742264        0.99006164405496
C           -1.72557109515702        2.04723815186263       -1.90496797293407
C           -0.86515801848250        0.87187563478395       -2.40996277353714
C            0.46738383181869        0.82836479975324       -1.78675605767101
N            0.88798109251230       -0.12747730502455       -0.89248590941804
C            2.24570161583466       -0.09168585001867       -0.46382004294207
C            3.22967043563481       -0.86239953017601       -1.37554037951392
C            4.63764278308397       -0.68637711997642       -0.89733119184409
C            5.34351052151968        0.47304670420564       -1.17964995962894
C            6.63646860193495        0.64694507694402       -0.70917106475193
C            7.25095673960289       -0.33350516578129        0.05156528451066
O            8.52140611245104       -0.26769319372756        0.54959698291388
C            9.28414788582225        0.87794066248031        0.27248053523798
C            6.53925319065372       -1.51696802558020        0.35209472559276
O            7.22353717395432       -2.43121450244240        1.09852026428089
C            6.60055326805354       -3.64894301867172        1.41508969793590
C            5.24784866925618       -1.67098127624459       -0.11752248516237
C            0.15448250172770       -1.35117083215029       -0.72598254700888
C           -5.24803636668514        3.22634009221513        1.69711348506915
C           -5.08491326862622        2.04913259342127        2.28333425340777
C           -5.04704171020397        4.53304422887820        2.34249779609700
H           -4.27205552079878        0.92550190794895       -1.81152556876847
H           -6.53746196704447        0.54573387786993       -2.21344357040575
H           -7.12351078110336       -0.97591449309262       -2.92865349707882
H           -5.46704473503123       -0.41590074097331       -3.26822691231372
H           -5.25780414029497       -2.86521228240244        2.75165583328567
H           -5.87292368583610       -4.23376587527465        1.80027583328090
H           -4.12336201339898       -3.91087704691731        1.86003018356373
H           -3.20551927885023       -1.75925459749868        2.17548419088741
H           -1.87942774942748        0.21430784076851        1.64184911094444
H           -2.62027483976157        2.12362634086713       -2.53030072659563
H           -1.16835708664750        2.98102050880600       -2.00998850141189
H           -1.41115444316448       -0.05706409049962       -2.26194909830865
H           -0.72739736266560        1.02600023632277       -3.49053526749166
H           -1.07178249554055        3.53553340658434        0.18070935330910
H            1.03370668583800        1.73500880276309       -1.83346630144946
H            2.28117500729147       -0.50163412485868        0.54895357107979
H            2.56109583157025        0.94948691746740       -0.40378541432281
H            3.13162136671607       -0.46871510781680       -2.38885397945432
H            2.96061411712079       -1.92232118022442       -1.37963204372422
H            4.89068134635297        1.24454982900411       -1.78275221588983
H            7.16496010325674        1.55242462353699       -0.95925660132837
H            8.81824547118635        1.78080686056592        0.67915920917350
H            9.44748896458599        1.00771267186659       -0.80295577181955
H           10.24281048731851        0.72331375551411        0.76284688546125
H            7.33634569508464       -4.21570307247488        1.98527075570616
H            5.70888490353341       -3.49961257734068        2.03332432657836
H            6.32921862376458       -4.21015560097841        0.51398782942507
H            4.69650303112842       -2.57078926959247        0.11296709453308
H            0.06114156252689       -1.93192079978319       -1.65224479477271
H           -0.84915834625656       -1.13053893589475       -0.35235917470656
H            0.67503440906425       -1.95755294392312        0.01114130122633
H           -5.42396902212044        3.32431320996641        0.64949481610236
H           -3.08032542908158        2.29439434192426        1.90194094606377
H           -5.20298027295157        1.13371947758789        1.72933501769356
H           -4.92398628206875        1.95879482434608        3.34457198532629
H           -4.78756591348041        4.34683036539763        3.37108681899951
H           -4.26399064708734        5.15247593144909        1.87945517964994
H           -5.98528021018912        5.07247069723839        2.25417256650048
H           -2.04247644863902        3.53098105642740        2.27716296815982
