72
 energy: 54.910847586132 xtb: 6.6.1 (8d0f1dd)
N           -2.11158740411378        2.78049283114438        1.89493668670752
C           -1.70379627880653        2.71319475612204        0.61630913334645
C           -2.33821415832198        1.98384497371317       -0.33618946280989
C           -3.09035035365435        0.76929103335108       -0.03461296679006
C           -4.12606668881343        0.33965259690843       -0.87056290301246
C           -4.82526395980719       -0.83171821623940       -0.62650817642766
O           -5.84841253280704       -1.29392644271856       -1.40462470037345
C           -6.27988759306076       -0.49684282205599       -2.46406148667961
C           -4.50134762839326       -1.64745474721300        0.48344345859092
O           -5.26056261182419       -2.78401221279277        0.64206719771349
C           -5.00478322699482       -3.60864514882951        1.75199657723521
C           -3.45629736966851       -1.24508337656860        1.30059154006118
C           -2.77297722594668       -0.05195178080527        1.05579741933150
C           -1.87699001478231        2.15174224308716       -1.75918881647183
C           -0.98747205242997        0.98005483827624       -2.23484521909165
C            0.33185452086441        0.94567158788148       -1.57364283205669
N            0.86767432221114       -0.15613289215703       -0.96443775172507
C            2.19412085160886       -0.11387032634339       -0.43468023590575
C            3.18927412961999       -0.78905808548755       -1.40794161193218
C            4.59271629620567       -0.62502078515941       -0.92188929778662
C            5.29455097254334        0.54493824585678       -1.15551176180916
C            6.58846129694303        0.70024333894375       -0.67541203525219
C            7.20033100183751       -0.30147304251803        0.05882793342846
O            8.47273178199556       -0.24605197930250        0.56020985452467
C            9.23714147881655        0.90088778971761        0.28915953854381
C            6.48652098240488       -1.48993758922039        0.32503422167903
O            7.16001731945281       -2.42579249488576        1.06006532720176
C            6.52531528428314       -3.64033682489726        1.36036202547414
C            5.20024862572311       -1.62970367816103       -0.16494476885138
C            0.10576026235129       -1.35880753147418       -0.73959705366835
C           -4.95064137305077        3.11577492613054        1.37149560172616
C           -4.87054822908410        2.01592717827898        2.14693434958601
C           -4.68633824744171        4.44406688138705        1.89231354392025
H           -4.38244909930532        0.96482249657236       -1.70979579523428
H           -6.60994494241910        0.48598026227040       -2.10871000697911
H           -7.11914637298008       -1.02683668474246       -2.91503261398168
H           -5.48747278027095       -0.35720463330252       -3.21127548541640
H           -5.16283460385283       -3.06910661066878        2.68877060998903
H           -5.72006634712637       -4.43073607738045        1.70233499069027
H           -3.98547001858727       -4.01636411724629        1.74684025958426
H           -3.16540590631036       -1.85556038758288        2.14366687597590
H           -1.97207614838091        0.22737498543284        1.72557623884459
H           -2.74879595271949        2.24393802225217       -2.42210924001468
H           -1.31474532186145        3.08483722600333       -1.85070967431021
H           -1.51941156326612        0.03803409845936       -2.11245779881825
H           -0.84756553407687        1.16315972315961       -3.30196760889860
H           -0.77795823827397        3.17434997732372        0.28310269649801
H            0.98739573538578        1.78561613660072       -1.72012331163297
H            2.28624477352849       -0.59257857601462        0.54146800717760
H            2.49341944590193        0.92446170935424       -0.28815576982971
H            3.06557681198292       -0.32010258872291       -2.38432850179983
H            2.94527009065068       -1.85634690248149       -1.49373382445005
H            4.84115391886692        1.33438156642058       -1.73429057550246
H            7.12846291319211        1.60674427862527       -0.89462017727531
H            8.77872406182755        1.79788222356361        0.71390922306685
H            9.39021110262236        1.04450825083752       -0.78701690820525
H           10.20311454828403        0.74891777753758        0.76275008057183
H            7.24646210473951       -4.23454712128294        1.92581497348141
H            5.63758606105825       -3.48447268323192        1.98070025980281
H            6.24964176700128       -4.17948684341003        0.44842758040384
H            4.64839086921340       -2.53432463556391        0.04250811972481
H           -0.03412669119473       -1.91006212984907       -1.67921051877611
H           -0.88162381774629       -1.15651699712037       -0.31239328997210
H            0.65578274479092       -1.98699722561219       -0.03860738362792
H           -5.32664590051118        3.13334924317734        0.37300163497509
H           -3.18697701591028        2.33244110252187        2.03520231621431
H           -5.13008819388101        1.05150407851580        1.73279072567381
H           -5.14215748627851        2.18002563859736        3.15169867388105
H           -4.28450367525072        4.33569765010813        2.87419778728222
H           -4.03325973488179        5.13473930195507        1.31249428216154
H           -5.71201796331509        4.78850584761571        1.89282065980617
H           -1.67878866585532        3.55745219443622        2.37744527905482
