72
 energy: -5.153521643745 xtb: 6.6.1 (8d0f1dd)
N           -1.60265118623684        2.89815550716871        2.23822016182825
C           -1.61558471478820        2.24140160382377        1.16747544912695
C           -2.78191828097806        2.12000903736727        0.20999249966567
C           -3.30569541379796        0.68154266294883        0.28635001898015
C           -4.29126917012337        0.26398816153698       -0.61023283771523
C           -4.85221301137440       -0.99888015008234       -0.54033371665024
O           -5.83012361319196       -1.47133269031320       -1.36745679195747
C           -6.38200146526163       -0.59579122934662       -2.31415893331068
C           -4.41604975773674       -1.90938658379833        0.44751153583441
O           -5.03237341676558       -3.12839840291171        0.43957236238982
C           -4.70388012905126       -4.04178870841797        1.45330464192967
C           -3.43449238091340       -1.50369680729854        1.33196038276204
C           -2.89204469682407       -0.22228810218938        1.25347690269266
C           -2.18154762790509        2.34450485958885       -1.22645833617289
C           -1.24839717753597        1.20129030486939       -1.72228230320867
C            0.03910063842167        1.13270760939031       -0.97616676284985
N            0.64908134829463       -0.05416188088253       -0.57885444098766
C            2.02135861383179       -0.05341479980623       -0.17918117107412
C            2.96283437384817       -0.57031802668775       -1.29299361795900
C            4.38645218091003       -0.45361383682164       -0.85228159086336
C            5.10347652510549        0.71073168729066       -1.05700713924309
C            6.41171815723207        0.82709471945847       -0.60793258090563
C            7.02208435986806       -0.21927477468260        0.05916151534965
O            8.29931631718243       -0.21446655329510        0.53383943946451
C            9.08884578730319        0.92660606917507        0.31610403680007
C            6.29654348231340       -1.40968742500844        0.28465518979396
O            6.97780232758303       -2.38783044514690        0.94735035095906
C            6.33997805024426       -3.61608231511502        1.17946162059557
C            4.99484045233893       -1.50738381358575       -0.16893496457278
C           -0.03775420014650       -1.31463502389812       -0.62602542687845
C           -3.98549501886261        3.04553770952531        0.60610100348356
C           -4.54558187309635        2.64778708474002        1.96522559296269
C           -3.56163753366502        4.51759913802605        0.69549803943707
H           -4.62700569691379        0.95080224945093       -1.36727832587593
H           -6.81732928460031        0.28884388909391       -1.83666466022807
H           -7.16864350130956       -1.16323903070543       -2.81072810084454
H           -5.63852784001348       -0.27762774264164       -3.05324144095591
H           -4.91160577135994       -3.63386936874660        2.44752313807394
H           -5.33871817849583       -4.91020783546026        1.28467105786581
H           -3.65200422456049       -4.34509471569266        1.40165177262729
H           -3.08270548369140       -2.17226742476727        2.10240527808393
H           -2.14070469130364        0.05877582527436        1.97582829098534
H           -3.00700743096010        2.45069729198058       -1.93349086308415
H           -1.59987347651720        3.27008498897628       -1.25578743390891
H           -1.75619682279040        0.23861603958395       -1.67103410593331
H           -1.06244886038209        1.40215991044415       -2.78821109155712
H           -0.72072245660464        1.72238668192154        0.80903472612521
H            0.68783715453018        1.98855535365601       -1.02915146707614
H            2.15220030471847       -0.67537329333379        0.71676433436816
H            2.31576765061021        0.96575119254277        0.07245505869973
H            2.79524672202139        0.02161234383538       -2.19235993098718
H            2.71487198710675       -1.60962937487755       -1.51913288341061
H            4.64897961565595        1.53623415709943       -1.58214793969693
H            6.95268203180493        1.74200939696625       -0.79153316556040
H            8.66480504729552        1.81154466481412        0.80214720693268
H            9.22377484170073        1.12920534414767       -0.75248243570300
H           10.05574792202045        0.70195586662534        0.76133843305659
H            7.07065709405782       -4.24283135154416        1.69079669341505
H            5.46020542997818       -3.49754705188116        1.82060378450742
H            6.04690164063567       -4.09854375245705        0.24176980648451
H            4.43284451391519       -2.41361725258289       -0.00534112780615
H           -0.20274796345182       -1.65875069661080       -1.65438032044147
H           -1.00837650579842       -1.23986718983352       -0.13030159150493
H            0.55726431319052       -2.06500868837503       -0.10633224943747
H           -4.76627022811735        2.94400659881515       -0.15635833559667
H           -3.74576817907036        2.70000083283557        2.69334468864231
H           -4.92511940798834        1.63726892719820        1.96182413502751
H           -5.35420667896186        3.31595608805827        2.25226209272751
H           -2.80792315198354        4.63801715012623        1.46901517337043
H           -3.15037107365302        4.88369096011337       -0.23819155856714
H           -4.41573185369781        5.14088879008117        0.94332194120809
H           -0.72140373613819        2.88738283620657        2.73719805825871
