72
 energy: 76.051775305554 xtb: 6.6.1 (8d0f1dd)
N           -2.04354937012833        3.05999275592149        1.97212678659301
C           -1.72761545456861        2.70951363458499        0.79487158800499
C           -2.52921192179739        2.07296033132767       -0.21894201156961
C           -3.15218417914446        0.78541907827863        0.03308465168954
C           -4.16977290683643        0.33018722154015       -0.82057460342322
C           -4.83570902047824       -0.86253750562041       -0.60750779076509
O           -5.85122598855408       -1.33320743419311       -1.40093075717054
C           -6.30310669302256       -0.51492241025727       -2.43256959892387
C           -4.49165644290915       -1.70280308916726        0.48061080172700
O           -5.22184773668656       -2.86523318660040        0.60648854106169
C           -4.93742102155228       -3.70373870455294        1.69697753645466
C           -3.46360842492421       -1.29150407453300        1.31243328645841
C           -2.81458323203634       -0.06929934739451        1.09979353689132
C           -1.98873735040557        2.22604235210139       -1.63218973174159
C           -1.04913631008283        1.04129146694821       -2.10416204507976
C            0.27058187359743        0.98870205054398       -1.45045426365204
N            0.82081841170045       -0.13411501437280       -0.88569581485431
C            2.16327320455792       -0.11177102140666       -0.38492436566127
C            3.14199370808003       -0.73959209828439       -1.39885176992215
C            4.55138757801444       -0.58579696411365       -0.91392516577239
C            5.25590825813519        0.58275618422168       -1.13582889744631
C            6.55285122557319        0.72866524411918       -0.65879926915370
C            7.16406005330744       -0.28343600337416        0.06014489012383
O            8.43464763521714       -0.23604446802208        0.55692849683219
C            9.20502946553903        0.91101428262984        0.29561128495784
C            6.44786563665155       -1.47397232916963        0.31280318113740
O            7.11949095358303       -2.41831589202354        1.03562053563670
C            6.48226141944787       -3.63495503943696        1.32479088737069
C            5.15863893564467       -1.60289409906284       -0.17607762042648
C            0.07094006080391       -1.35515136762133       -0.71693433968418
C           -4.71085607058757        3.08613306984752        1.14135979183042
C           -4.66228348896663        2.00169163499527        2.11780905084737
C           -4.45333311102629        4.43818534724646        1.60529902639263
H           -4.43761246293847        0.97570007240858       -1.63887823706057
H           -6.65510279929066        0.44894189297499       -2.04741657123655
H           -7.13163762643645       -1.05328079837972       -2.89438097274823
H           -5.51425696773295       -0.33495242748716       -3.17527110384437
H           -5.10265151792874       -3.19005279125575        2.64737176932602
H           -5.62982717802988       -4.54343268118628        1.63321593410274
H           -3.90711607848876       -4.08196141261538        1.67512860926324
H           -3.15693816312376       -1.92023971549399        2.13831017497603
H           -2.02486692156604        0.21602383300431        1.78231877956156
H           -2.82110322298121        2.30712375706103       -2.33775468745975
H           -1.40524182039405        3.14331330662136       -1.73054989798548
H           -1.57559881755980        0.09375868154129       -2.01391783006837
H           -0.93160361556266        1.26090813376453       -3.16670508013834
H           -0.72067211358559        2.85151367555651        0.38120517383963
H            0.93366118036136        1.83185369912506       -1.56476781704410
H            2.29539540655247       -0.64712650717831        0.55680814735746
H            2.46051226050866        0.92058356167152       -0.20538371043218
H            3.01261306215810       -0.23778090312311       -2.35757835567970
H            2.90760718882953       -1.80349673089571       -1.53158744260162
H            4.80320765101584        1.38111692815145       -1.70223972156843
H            7.09616698184036        1.63660649075503       -0.86361026046770
H            8.75432598481400        1.80565572597001        0.73281165000992
H            9.35521563159237        1.06515676374096       -0.77934412103397
H           10.17104263250908        0.74757597301832        0.76305942088973
H            7.19906400349796       -4.24085634266581        1.88346826138762
H            5.59660554481539       -3.48052059434823        1.94825260478324
H            6.20433425926123       -4.16167317614953        0.40672953856255
H            4.60688190700199       -2.51030729138388        0.01648306921029
H           -0.07489519180463       -1.85913405257018       -1.68003053692451
H           -0.91778761467634       -1.17590165903501       -0.28017814173018
H            0.62993023950655       -2.01766111638916       -0.04999592104122
H           -5.29470728190470        3.03414501754820        0.25437038146163
H           -3.58183864852740        1.96314433045230        2.27566568009273
H           -5.09056861030683        1.07513928388764        1.81002170761433
H           -5.26398770465915        2.39538642966730        2.93051016532998
H           -3.96897412784870        4.42629155278178        2.56322186251996
H           -3.87866899930925        5.10463671926876        0.94274609362921
H           -5.45934711180119        4.83348007222425        1.66807630926500
H           -1.36828704058472        3.59362736434563        2.49994426633084
