72
 energy: 44.275861505530 xtb: 6.6.1 (8d0f1dd)
N           -1.97686766196308        3.20668357372691        2.11174431366810
C           -1.75389147838040        2.61276908979983        1.01613380958525
C           -2.77619013790610        2.21088650550648       -0.00989852798592
C           -3.23013536024136        0.77224530028761        0.13648858631174
C           -4.22052158554540        0.31768306283672       -0.73931320877071
C           -4.84691748879127       -0.90971614497739       -0.58058605331783
O           -5.84756549137786       -1.38217265500069       -1.38580511537651
C           -6.33275746461942       -0.54159586174909       -2.38924106298302
C           -4.47105079486614       -1.77823970682095        0.47180029358405
O           -5.15861406760819       -2.96255986574049        0.55292859983592
C           -4.84810313914766       -3.82786110055667        1.61550888748103
C           -3.45982279743019       -1.36298660483711        1.32163406671919
C           -2.85659874612241       -0.10687202338991        1.15678528181952
C           -2.11417834871039        2.31595349982104       -1.47391588585666
C           -1.15099301227598        1.15961169603053       -1.97628006998565
C            0.18844530217597        1.08965459968792       -1.32680131838614
N            0.75083725316174       -0.09232335306777       -0.77995177493137
C            2.10604805992014       -0.09806165281460       -0.31401858812773
C            3.07823595180533       -0.67687150371568       -1.36822243665241
C            4.49161956353996       -0.53674509955936       -0.89673265174848
C            5.20192991655503        0.63102325144070       -1.10756873392144
C            6.50245173923550        0.76570732975724       -0.63840062825978
C            7.11295023308976       -0.26006989627117        0.06041236346741
O            8.38651582957158       -0.22618858598455        0.55092533086485
C            9.16243265673952        0.91977653687447        0.30386784163753
C            6.39377375923397       -1.45085361793155        0.29982017981528
O            7.06803363147928       -2.40804562278767        1.00457586595155
C            6.42806427094089       -3.62740724120053        1.27402365980336
C            5.10068726438100       -1.56766909015552       -0.17959207347437
C            0.02653995853031       -1.33744517354378       -0.68641648520229
C           -4.33493572993880        3.01338533278083        0.84932120339329
C           -4.63081894024073        2.19297448375514        2.05898806794163
C           -4.14255601809263        4.46922922401231        1.22995595657946
H           -4.50915659562817        0.97349246868509       -1.54029565122324
H           -6.71584406884029        0.39519839327289       -1.96933143513125
H           -7.14583855198347       -1.09187949192278       -2.86386824842145
H           -5.55536752569954       -0.31187920597446       -3.12829943328154
H           -5.02637222761890       -3.35095594959071        2.58283659522489
H           -5.51480975267875       -4.68431322250261        1.52156702980239
H           -3.80758765234249       -4.17126259993116        1.57494002788950
H           -3.13669945224187       -2.00910250586816        2.12772177075047
H           -2.08445374567463        0.17877680024223        1.85852430452885
H           -2.91105453767981        2.40837827835748       -2.20503734249274
H           -1.49334259340061        3.21126300044758       -1.55125400344005
H           -1.61474130742736        0.18375721584164       -1.88782441983733
H           -1.11034570803692        1.38034592889411       -3.06524474589579
H           -0.72568653839427        2.43756231788699        0.69286067850235
H            0.86393322158632        1.91405861461698       -1.37278741566677
H            2.25075065312945       -0.68738616624086        0.60331048823185
H            2.41083694441067        0.92529373265414       -0.09887604388657
H            2.93469870594581       -0.13805553456953       -2.30435329634128
H            2.84095674899654       -1.73150481060925       -1.54497330895522
H            4.74829707971660        1.43949124932000       -1.65824647052773
H            7.04810990562845        1.67604027605798       -0.82816082184463
H            8.72172602400455        1.81179910446032        0.75788370979396
H            9.30803962426022        1.09056023413994       -0.76930598000530
H           10.12861752573344        0.73622198795426        0.76331283644787
H            7.14348764525267       -4.24665619825866        1.81910177923350
H            5.54420633631269       -3.48069455917963        1.90252438934864
H            6.14632925020324       -4.13679021798994        0.34765668097783
H            4.54583448597633       -2.47572132844958       -0.00159634186719
H           -0.12394723463172       -1.79161326230672       -1.67282920973968
H           -0.96060114236938       -1.20098828072255       -0.23412028727441
H            0.59014283100318       -2.04006714438762       -0.06186511442537
H           -5.12129951997781        2.94443107360692        0.09740840148614
H           -3.68350721684937        1.98480880560995        2.55931852164879
H           -5.06920977335130        1.24960960283107        1.84795377443098
H           -5.36475748269741        2.73377026689762        2.65731207434647
H           -3.57380101966307        4.54102865486081        2.14665300771550
H           -3.62086965425153        5.07077114434384        0.48676949841291
H           -5.11599077136339        4.91695494380772        1.36378291450784
H           -1.12293319559049        3.39218686286817        2.61774553082846
