72
 energy: 76.037393033032 xtb: 6.6.1 (8d0f1dd)
N           -2.04460620315980        2.89832131802970        1.91268007584481
C           -1.69873803748527        2.72609465255029        0.68639482839958
C           -2.40513607725602        2.01107392815632       -0.29644955903362
C           -3.10628297556574        0.77682234055228       -0.01361694488806
C           -4.14023350977469        0.33552902404141       -0.85529006665981
C           -4.82773872017024       -0.84097313259530       -0.61979981460292
O           -5.84936441498171       -1.30782807093378       -1.40498178843852
C           -6.28762928230998       -0.50333126065454       -2.45327697299466
C           -4.49899095658381       -1.66603859094984        0.48294815303480
O           -5.25156559631674       -2.81377739804579        0.63061366107358
C           -4.98308244350493       -3.64068918057339        1.73418087338639
C           -3.46001734458282       -1.26038276315805        1.30533474775637
C           -2.78643337962640       -0.05971017361381        1.07141750860670
C           -1.91838146053204        2.18179683955293       -1.70657801219983
C           -1.00118643323152        0.99501840709628       -2.18537675226207
C            0.31813288233842        0.94545456390197       -1.54431590007205
N            0.84813843366049       -0.14344545845038       -0.93742823530648
C            2.18568514031554       -0.11250759815974       -0.41816221543748
C            3.17136367202769       -0.77180044473512       -1.40617881811340
C            4.57925273086471       -0.61122638295564       -0.91877183907324
C            5.28159015706583        0.55730857585100       -1.14918715290805
C            6.57702676108597        0.70944088903767       -0.66997700268293
C            7.18887924694765       -0.29539278544183        0.05930357673820
O            8.45890437183475       -0.24228364624913        0.55865198090940
C            9.22648245166956        0.90479323026953        0.29115468408071
C            6.47420579590129       -1.48505126025816        0.32058303751294
O            7.14588870487778       -2.42299344128681        1.05126250134524
C            6.51078524279373       -3.63859461968577        1.34878637423841
C            5.18635802734098       -1.62065736988071       -0.17001314690374
C            0.09281502765474       -1.35707295506194       -0.73243116533907
C           -4.89094490440671        3.12065359164173        1.28139446963005
C           -4.70324609240087        1.99393630706791        2.14855464372425
C           -4.60329337785473        4.43508239578067        1.79147730167297
H           -4.40061378469630        0.96717649978763       -1.68725124881461
H           -6.62475886612230        0.47345717638456       -2.08745559347728
H           -7.12382928843116       -1.03549750111993       -2.90839509743692
H           -5.49629235881477       -0.34914105214513       -3.19970368544031
H           -5.14265981136210       -3.10968724322870        2.67584645848687
H           -5.68985003101020       -4.46960654312267        1.68144872621293
H           -3.95933203567666       -4.03813513486323        1.72349876874802
H           -3.16288556149576       -1.87774627855353        2.14168433334668
H           -1.99152284422501        0.22531299074065        1.74598848053810
H           -2.77071480437927        2.26263873111136       -2.39521435745962
H           -1.34626448798081        3.10748037210600       -1.80883913237037
H           -1.54292879570320        0.05664061545056       -2.07969938940331
H           -0.86589767194428        1.20147308998123       -3.24552390667028
H           -0.74114713295687        3.07641443882884        0.28441879322146
H            0.96853930057244        1.79835078810051       -1.66554242080483
H            2.29531870751841       -0.60932208319663        0.54642345598505
H            2.48416918189890        0.92321598680713       -0.26017200025253
H            3.04892335682846       -0.29218696733095       -2.37756337797854
H            2.93443898068392       -1.83911190897061       -1.50939138020809
H            4.82892807599124        1.35019331040617       -1.72361924672272
H            7.11797978323471        1.61647127854187       -0.88413033616048
H            8.77083173266569        1.80084118443855        0.72016987642261
H            9.37879217798756        1.05162870335302       -0.78452090169522
H           10.19235653739329        0.74913451503950        0.76277070125452
H            7.23037550632528       -4.23658900092004        1.91227969503060
H            5.62394833115646       -3.48280732438209        1.97018919255982
H            6.23446704707826       -4.17375383620659        0.43490866816692
H            4.63525263087427       -2.52664464113365        0.03254741087603
H           -0.04781466876255       -1.89052232864214       -1.68070334662783
H           -0.89536242980320       -1.16252678700963       -0.30142397523622
H            0.64714203958352       -1.99631757529704       -0.04346320111098
H           -5.34746047030687        3.10743667127635        0.32432690897330
H           -3.52591798522542        2.11867164846724        2.14271435666563
H           -5.08225571777352        1.05143498684437        1.76550473193137
H           -5.19640812961593        2.25246986043572        3.06561008722678
H           -4.17231953812783        4.35481938787613        2.76522252757137
H           -3.98347801714577        5.13009112491693        1.18729796357776
H           -5.62629164757460        4.78974197696054        1.81639955799254
H           -1.52290019165485        3.59897565271044        2.41266190442611
