72
 energy: 3.147935085955 xtb: 6.6.1 (8d0f1dd)
N           -1.72681665341112        3.01350825180887        2.23345766883275
C           -1.68013718188413        2.35877824160064        1.16172666495430
C           -2.81490065877752        2.17906001281033        0.16395096764569
C           -3.28919918518876        0.71499937630222        0.24399888179779
C           -4.27292316843852        0.28211424542935       -0.64849361373035
C           -4.85311912900482       -0.97205185713096       -0.55112655880963
O           -5.83877023630515       -1.44544843144692       -1.37045807743145
C           -6.36864904880035       -0.58008834206329       -2.33534161698667
C           -4.43414214238171       -1.87149103234033        0.45513169452803
O           -5.07132456513409       -3.08090279799044        0.47384292654946
C           -4.74435183417626       -3.98069566136832        1.50069203869743
C           -3.44421922191781       -1.46149334169102        1.32917908977591
C           -2.88904756709490       -0.18326861115648        1.22626333123445
C           -2.16936464517808        2.36268390853403       -1.28378926903591
C           -1.22967814920931        1.21299030920287       -1.78661972384131
C            0.08472099240324        1.12758863325767       -1.08311873497029
N            0.67530851715640       -0.06473056311160       -0.63101628910727
C            2.04481714860257       -0.06944655208364       -0.21645796555918
C            2.99577566936832       -0.60088482824834       -1.31573000475184
C            4.41653173611226       -0.47689616215708       -0.86616311106326
C            5.13203285876693        0.68851511422033       -1.07148862471011
C            6.43797531209564        0.80989383246353       -0.61573328004304
C            7.04838652891480       -0.23103419765907        0.05972445968902
O            8.32457933619459       -0.21748942952406        0.53917259879327
C            9.10996754725283        0.92538257877970        0.31284019167819
C            6.32473734669287       -1.42153124831285        0.28837582799886
O            7.00387236879570       -2.39372914633155        0.96400213882945
C            6.36453054602233       -3.61898626975767        1.20694718056818
C            5.02557473219582       -1.52431728268217       -0.17353184207654
C           -0.02240315789370       -1.32370652533807       -0.64227670890779
C           -4.08808435007612        3.01660364476954        0.64942789836469
C           -4.58612137453801        2.51290788096347        1.98940816948229
C           -3.73268156120801        4.50482099807005        0.84208959776568
H           -4.59564684108196        0.95901014130860       -1.41898437366816
H           -6.78908004465006        0.32034241676043       -1.87440842573526
H           -7.16253399297046       -1.14331147350888       -2.82569753560083
H           -5.61343346859735       -0.28806546931031       -3.07390204548652
H           -4.94285703822411       -3.55283142876643        2.48781341027791
H           -5.38674685906755       -4.84788966609844        1.35590122818979
H           -3.69515086660503       -4.29319183490592        1.44954315443514
H           -3.10003814174739       -2.12451306582871        2.10956640971410
H           -2.13444703028301        0.09917404543370        1.94553652073684
H           -2.97616938977909        2.47523379501917       -2.00754705328490
H           -1.56027080929048        3.27076062932676       -1.33004708219662
H           -1.70971574028429        0.23760484245636       -1.72343396830760
H           -1.12711187968090        1.43043093355936       -2.86095603708773
H           -0.74179447025487        1.89020405872781        0.89584123868752
H            0.73907473983298        1.97567074381723       -1.12454149928949
H            2.18326920908119       -0.68314791770139        0.68624701501901
H            2.34448741270962        0.95021601303742        0.02396735500928
H            2.83550806133558       -0.02364815429815       -2.22649278779666
H            2.75174643090470       -1.64439833411558       -1.53019539878714
H            4.67752775572266        1.50916472597192       -1.60344965279382
H            6.98164378955277        1.72347680684297       -0.79739032879005
H            8.68156337880632        1.81275391010035        0.78959893514535
H            9.24835495460467        1.11907448025087       -0.75710804226528
H           10.07670775915278        0.71264306808461        0.76211782554509
H            7.08822301531365       -4.24625659082897        1.72895497483643
H            5.48334992597980       -3.49032651559079        1.84401293112404
H            6.07588253526361       -4.10810117927820        0.27165619845739
H            4.46570493615538       -2.43120606464789       -0.00632763938664
H           -0.18073171124488       -1.69853955828946       -1.66024639019238
H           -1.00124150362380       -1.23043507691109       -0.16613306792884
H            0.55073430199828       -2.06912794660679       -0.08590984884695
H           -4.87884605856030        2.92804701890706       -0.10426763020219
H           -3.75388983444409        2.48642028708655        2.67880554752359
H           -4.97225045747513        1.51468507836894        1.93790513029804
H           -5.37988521097464        3.15428682253207        2.36344086324700
H           -3.02942888736364        4.60623872709085        1.66519435712873
H           -3.27435756365481        4.95391195867460       -0.03327876652317
H           -4.62110551080780        5.07944732447185        1.06837391880610
H           -0.84582590226869        3.02974365468802        2.72801318619344
