25
 energy: -3.219136375404 xtb: 6.6.1 (8d0f1dd)
C            3.29301585386585        1.14995409431447        0.09259604266923
N            2.33329616314701        0.09785985267665        0.03218163849133
C            2.61852431164300       -1.25642072778121        0.02293208341112
N            1.42558798638201       -1.94304342520136       -0.02044348834271
C            0.42122044648955       -1.04413433193993       -0.00680456615889
C            0.93818422208862        0.24596303809695        0.02718939504636
C            0.11558358089981        1.40828452191668        0.02239709456856
O            0.51434765311092        2.57686468950672        0.03388654203626
N           -1.31637049179580        1.10499557979682       -0.01712653380297
C           -2.35241713089339        2.17190918844413       -0.06886416656812
C           -1.81481945444969       -0.16469186663581       -0.02471746878623
O           -3.00749119755286       -0.39680240838744       -0.03962147932000
N           -0.92051645008739       -1.26511678289604       -0.02117341090618
C           -1.44514220877567       -2.61771096793247       -0.05318653750608
H            3.76646475622096        1.19358978244495        1.07804221977785
H            4.06838763833096        1.00033635475070       -0.66395729561786
H            2.76984311637250        2.08348193706227       -0.08727511708656
H            3.59167400177232       -1.68790514600057        0.02749966256872
H           -1.84575374675361        3.13757076575152       -0.04955768263103
H           -2.96765620915334        2.10173864428427       -0.96782913043060
H           -3.02962392922755        2.10808668917379        0.78376784386801
H           -1.13091901000836       -3.18161522029281        0.83011776702132
H           -1.11754192056010       -3.15074679511215       -0.95111921203516
H           -2.53103591759289       -2.53896775647340       -0.06141060434748
H            1.34709168933556       -2.94780493462129       -0.04475221014218
