25
 energy: 53.358337437652 xtb: 6.6.1 (8d0f1dd)
C            3.43785221627052        1.05395942378025        0.11037742628125
N            2.44785469511016        0.02720791186377        0.00924884932700
C            2.70595586918061       -1.31405626842577        0.00475513780650
N            1.51104444347283       -1.98639212447465       -0.05003358482899
C            0.51298616346131       -1.05589523506317       -0.02315737414580
C            1.06247493439437        0.21135945086765        0.02009223507911
C            0.20294133774743        1.41990615028196        0.04816888627096
O            0.68740773159539        2.53966075558872        0.12121442070316
N           -1.21298336284437        1.17991714536574        0.00116908571601
C           -2.92717163142993        2.39701393037166       -0.13891182310951
C           -1.73136731328244       -0.05753271243167        0.01128825890604
O           -2.90173087163432       -0.36759667371308        0.04008278238026
N           -0.81603261581493       -1.22408046914304       -0.01029485898857
C           -1.36066105616482       -2.57280433270627       -0.02965240691077
H            3.88410390297686        1.08532462727787        1.10699796251151
H            4.22896659707358        0.86108329489213       -0.61851517917404
H            2.98152510681667        2.01680341724036       -0.07769628187483
H            3.65050729636695       -1.80299218834984       -0.07697708612441
H           -2.39967992224636        3.33297951441885       -0.13227081937481
H           -3.45223693049965        2.15661895717010       -1.04389786547344
H           -3.53710379279432        2.20587626042285        0.71698828142792
H           -1.01290251041573       -3.14548263632504        0.83603972615467
H           -1.04775333670217       -3.09318770343255       -0.93941279739660
H           -2.44890481235616       -2.51797817269070       -0.00648962633837
H            1.43804647606087       -2.98846902276321       -0.10053846968706
