25
 energy: 55.964847971937 xtb: 6.6.1 (8d0f1dd)
C            3.62296236153560        0.85983041484742        0.12577757757990
N            2.61590895639825       -0.16842081261417        0.04279700193573
C            2.86263318571423       -1.47615217079693       -0.02663496564647
N            1.67550550536396       -2.13583420711994       -0.05713464035565
C            0.66216719013031       -1.20488839614283       -0.00097180079600
C            1.27053921908389        0.04759600554477        0.05407511338465
C            0.43145445333549        1.28496053211498        0.09090320013810
O            0.92671961988993        2.39972538220040        0.11860830463734
N           -0.87398369048942        1.03849196430531        0.08105325234496
C           -3.84318862682161        2.97722295306885       -0.17763233087524
C           -1.53947929206597       -0.06254742707154        0.04229213935975
O           -2.71029507131009       -0.30579287136649        0.03823660411432
N           -0.64298494775026       -1.37795005106034       -0.00446477476031
C           -1.27824711297838       -2.65987212373746       -0.03497043820814
H            4.01756065124419        0.88013226159213        1.14203735807421
H            4.42810825661744        0.59527402552523       -0.55967738350963
H            3.21720887090436        1.84054103361221       -0.12550296921491
H            3.82358005410133       -1.94374658293873       -0.06455998249365
H           -3.20475003507852        3.82423531179031       -0.16185107174376
H           -4.19062869599306        2.61536904393097       -1.11737650831072
H           -4.31323353155706        2.67074144444367        0.72809837805545
H           -0.98599764593364       -3.25551471054199        0.83506957011099
H           -1.03431314054557       -3.19788066011118       -0.95614739888481
H           -2.35331181990895       -2.47194964624378       -0.00177759914744
H            1.53500030290408       -3.12991526442471       -0.11024500445783
