  25
        -42.17279027
 C          4.8680646998        0.2176808771        0.1379589563
 N          3.9842697350       -0.6268919026       -0.1346538106
 C          3.1473783958       -1.5852528590        0.0057587864
 N          1.8213613390       -1.4328029194       -0.0055034061
 C          1.1730837193       -0.2161638579       -0.0169042261
 C         -0.1618554119       -0.0110326355       -0.0108712135
 C         -0.6995583167        1.3864545845       -0.0179689677
 O         -0.0687563179        2.4105483741       -0.0233026816
 N         -2.0615035267        1.2380134192       -0.0069634213
 C         -3.0113049823        2.3235500972       -0.0114024386
 C         -2.4280634255       -0.0961010177        0.0096881763
 O         -3.5328667258       -0.5529262570        0.0308574821
 N         -1.2419266354       -0.8441371629        0.0050755380
 C         -1.2907258414       -2.2837239269        0.0181305211
 H          5.1534010506        0.4476096380        1.1608298927
 H          5.3597588200        0.7484140047       -0.6669314774
 H          1.8162761770        0.6492353910       -0.0333848873
 H          3.5334014480       -2.6000859570        0.0098029445
 H         -2.4815127247        3.2364569655        0.2540115538
 H         -3.4565801431        2.4336694765       -1.0015089023
 H         -3.8018485796        2.1151257891        0.7083937970
 H         -0.8194838391       -2.6871757710        0.9168354246
 H         -0.8336946793       -2.7024794747       -0.8809940130
 H         -2.3465687122       -2.5596275524        0.0289381795
 H          1.2449741809       -2.2661677527       -0.0050826656
