25
 energy: -6.051721890262 xtb: 6.6.1 (8d0f1dd)
C            3.24836165850289        1.19128078127473        0.08807024876888
N            2.31756404913726        0.11057666476554        0.03348773806445
C            2.62274009537047       -1.23356122842189        0.03274572095986
N            1.44544596857777       -1.93551511753802        0.00320607780745
C            0.41296391657038       -1.07023878349845       -0.00877575523261
C            0.92931580059098        0.22454715278656        0.01131872436858
C            0.12262381563825        1.38177118786234       -0.00644861326993
O            0.49289307942080        2.56097840920208       -0.00542912447711
N           -1.26272838422107        1.03623503547234       -0.03158015374108
C           -2.21613102949320        2.13480985617112       -0.04957141672852
C           -1.80531456270560       -0.21232657258203       -0.04751713952031
O           -3.00688173146412       -0.39814997870650       -0.07003840491002
N           -0.93090138427605       -1.32307696786825       -0.03761652103303
C           -1.52986447603535       -2.64320809390410       -0.06174537440659
H            3.73022331309301        1.23643491926338        1.06963180188327
H            4.01970234137138        1.06859636526845       -0.67642402112477
H            2.70176550282898        2.11995936523192       -0.08123402972311
H            3.60019138267291       -1.64998780559077        0.04366227260554
H           -1.65650314839020        3.06905670181063       -0.02559638562385
H           -2.82139503185957        2.07896012145586       -0.95405059959309
H           -2.87198008227248        2.06169997871211        0.81737766032780
H           -1.25615725957707       -3.21547178438035        0.82862330835671
H           -1.23067176241780       -3.19481249735992       -0.95704311679092
H           -2.60836267172979       -2.50594850022434       -0.07577540354182
H            1.40248670205351       -2.93885199148396       -0.00895346803693
