25
 energy: 43.533294064451 xtb: 6.6.1 (8d0f1dd)
C            3.38806617319571        1.46676988638794        0.08442899040900
N            2.53700302802232        0.30082757877461        0.08228565025459
C            2.92569174448922       -0.97467818435627        0.06277396906987
N            1.84730706240781       -1.80201943528006        0.01346545874454
C            0.70978589802665       -1.02214895771446        0.00194873885388
C            1.17261908923860        0.30525631268628        0.04224296903614
C            0.24918410573960        1.41931475550345        0.01606307832567
O            0.59278424132785        2.59704658156177        0.02020083138673
N           -1.03844128754840        0.96469959408163       -0.02842990247506
C           -2.09369497891484        1.96652121576979       -0.05203995923908
C           -1.47456923464205       -0.39858614163360       -0.04239372554368
O           -2.67939283227606       -0.51133822767900       -0.06305090155439
N           -0.55123132972001       -1.39292862521634       -0.03507823058544
C           -2.79185644194450       -3.19812360394630       -0.09848225656870
H            3.89749254022605        1.55813864852712        1.04362821813102
H            4.13752152472356        1.38647126902017       -0.70335237721209
H            2.79334206196045        2.36957626122013       -0.08010172723728
H            3.93877097201947       -1.31070011135170        0.05576399186975
H           -1.58306473486417        2.92549968518026       -0.03471962566240
H           -2.70374719171619        1.86809162597413       -0.95116472214005
H           -2.74509731463028        1.85573161777892        0.81596723526877
H           -2.51367758717286       -3.64411669821248        0.81097259349879
H           -2.49052644128643       -3.60244126774714       -1.02064072199028
H           -3.39705391430874       -2.33080564569422       -0.08687474464573
H            1.91324324589831       -2.81590301138739        0.00820511654413
