25
 energy: 47.573677729495 xtb: 6.6.1 (8d0f1dd)
C            3.27987569155571        1.38318050713160        0.09488877805465
N            2.44283661922730        0.21032767215669        0.05031644215369
C            2.81414426431626       -1.09207809796576        0.05544011313406
N            1.69926008937588       -1.89598518035848        0.02210659806562
C            0.57147514461729       -1.11686014375426       -0.00368178986882
C            1.06367998683378        0.20701255372795        0.02319495522287
C            0.20792582509496        1.33915074468150       -0.00510413258593
O            0.55975065447230        2.51639721511143        0.00394073674361
N           -1.12159454693651        0.95450667778689       -0.03643020488247
C           -2.11552108683165        2.02786376226270       -0.05147499672257
C           -1.61306268540943       -0.35012443076555       -0.04780814530655
O           -2.82839259872627       -0.41284878656768       -0.06685523604070
N           -0.74606553468983       -1.43444790852489       -0.04049648352868
C           -2.26891674382384       -2.91310969948617       -0.08273950750605
H            3.82171687672067        1.43540934642795        1.04139006747760
H            4.00900403925461        1.37966387449642       -0.71614062976774
H            2.66713626254527        2.28205514998725        0.00220166014289
H            3.81977706219490       -1.45398029051431        0.05836157837113
H           -1.54908432917182        2.95653218974885       -0.03072765531162
H           -2.72344705294017        1.96821883069836       -0.95254290980198
H           -2.76204369988090        1.95417065880547        0.82052599416057
H           -2.05895830325822       -3.40347182206022        0.82818989651858
H           -2.02781412135185       -3.38150188324742       -0.99670045693364
H           -3.04116547268222       -2.19148225134231       -0.08644094198259
H            1.73875616714082       -2.90440050327023        0.01922999693386
