25
 energy: 39.579168908559 xtb: 6.6.1 (8d0f1dd)
C            3.44567196326951        1.54665702684726        0.08636082499941
N            2.61028034006814        0.37813989589869        0.05718973739671
C            3.01479342752404       -0.88424102991299        0.04550458813052
N            1.94903940512521       -1.71432603303757        0.01096142466725
C            0.80559140943653       -0.93958229466826        0.00418083916333
C            1.24355317774703        0.39021700031967        0.03561716966538
C            0.29455268417449        1.49024212243631        0.00772207421709
O            0.60768327607420        2.67688811347034        0.00961812444862
N           -0.98320143599771        1.00229371626061       -0.02840680215891
C           -2.08379256014856        1.95267383034211       -0.05299406881918
C           -1.37756632877711       -0.40639253017216       -0.04124677649696
O           -2.57117246831647       -0.58936796129332       -0.06470163212993
N           -0.42664595129939       -1.36108222701068       -0.03025222479606
C           -3.15506832602939       -3.43826774149287       -0.10757709682900
H            3.93206048954065        1.63511077381667        1.05615768262998
H            4.20185276658294        1.47889938091775       -0.69276260145135
H            2.82296986172308        2.42477386873530       -0.08189904134254
H            4.03604968561055       -1.19573863017313        0.06093241104972
H           -1.64913351664549        2.94775101900116       -0.02498001263577
H           -2.68129639243632        1.81913965850676       -0.95571985716531
H           -2.73567602375181        1.79431342757418        0.80634328748047
H           -2.88800599528257       -3.90837079677831        0.81236835283717
H           -2.85889412159386       -3.87115450068150       -1.03707842871591
H           -3.66047546699839       -2.50310226563193       -0.09753637881685
H            1.98728906768945       -2.72387969284345        0.00558595776082
