25
 energy: 47.301408160677 xtb: 6.6.1 (8d0f1dd)
C            3.31029926657832        1.41196997938403        0.09057453062305
N            2.47253235157202        0.23892313680599        0.06684378532302
C            2.84715357756234       -1.05223563247441        0.06170456537980
N            1.74953767818125       -1.86726385210505        0.02099788320402
C            0.61604670840662       -1.08478060722836       -0.00071905100343
C            1.10186789533765        0.23983709036644        0.03345946601062
C            0.21998090359006        1.36296470500144        0.01057831591143
O            0.57303062574775        2.53903482741716        0.02287369657471
N           -1.09298818583955        0.95460980552384       -0.03365292437401
C           -2.09931690723354        2.01099245853918       -0.05194151886577
C           -1.56444658776397       -0.37360688933094       -0.04478985406749
O           -2.77656394093865       -0.44421775096871       -0.06365038484203
N           -0.67414427019305       -1.42026646040485       -0.03737735866601
C           -2.47012546183183       -3.01864398143022       -0.08986386282498
H            3.85661618468941        1.46508275964267        1.03216283181269
H            4.01659437605738        1.41465203453593       -0.73475447790432
H            2.70209072275010        2.31265700118153       -0.01606171660046
H            3.85770417300164       -1.39740404453950        0.06311143468919
H           -1.52768172281459        2.93746374790227       -0.03424494632525
H           -2.71077261322721        1.93852758991184       -0.95134777040673
H           -2.74921487034936        1.92514432196058        0.81856606153824
H           -2.19253573142093       -3.46164515990564        0.82285043868617
H           -2.16504319911053       -3.43155294270178       -1.00789580074994
H           -3.16807751456616       -2.22643052187621       -0.08593618410987
H            1.80597058042870       -2.87874458147208        0.02078185947893
