  72
        -99.32706787
 N         -2.1674504988        2.7749551840        2.6692756632
 C         -2.1105275760        2.1457560209        1.5912923555
 C         -3.2372573744        2.0628750359        0.5969306177
 C         -3.7547709134        0.6349782274        0.5362334072
 C         -4.6534629125        0.2654676478       -0.4663696188
 C         -5.1609213130       -1.0208743639       -0.5472492660
 O         -6.0311298589       -1.4565481337       -1.4813905792
 C         -6.5702179101       -0.5366284226       -2.4018502168
 C         -4.7563762220       -1.9942496097        0.4065523947
 O         -5.2903269227       -3.2217529081        0.2474835271
 C         -5.0005773721       -4.2236214678        1.1941104378
 C         -3.8702166360       -1.6189042033        1.4042103524
 C         -3.3790564031       -0.3210123470        1.4684180773
 C         -2.6340339479        2.4786179925       -0.7720084993
 C         -1.7738957596        1.4076166369       -1.4680696829
 C         -0.4442895889        1.2042433968       -0.8377264430
 N          0.1196137066        0.0306365158       -0.5723463666
 C          1.3646681642       -0.0948794238       -0.1314314959
 C          4.3817270554       -0.7573208347       -2.8987235407
 C          5.3549300856       -0.5138579107       -1.9599501535
 C          5.9974017829        0.7535635285       -1.8718522692
 C          6.9828897229        0.9896051403       -0.9492317207
 C          7.3866696253       -0.0088952796       -0.0563915309
 O          8.3437952566        0.1137214037        0.8702755692
 C          9.0502051822        1.3269766002        0.9947438715
 C          6.7485654906       -1.2907422948       -0.1105298197
 O          7.2003509282       -2.1790872904        0.7994629527
 C          6.6761642296       -3.4858595132        0.7931638388
 C          5.7659067222       -1.5220805734       -1.0383074486
 C         -0.6566148372       -1.1853561150       -0.7506519269
 C         -4.4354961095        2.9961165056        0.9452954546
 C         -5.1245340031        2.5677745017        2.2387822887
 C         -4.0453821835        4.4688210999        1.0337685666
 H         -4.9678779229        1.0007518634       -1.1882049886
 H         -7.0939195542        0.2782298075       -1.8931381835
 H         -7.2809471135       -1.1039082039       -2.9994400803
 H         -5.7973303462       -0.1233380500       -3.0582035982
 H         -5.2991377523       -3.9221634744        2.2025115360
 H         -5.5833835480       -5.0904150036        0.8892669355
 H         -3.9368357177       -4.4833013626        1.1904559021
 H         -3.5590865978       -2.3307572778        2.1516625720
 H         -2.7130138385       -0.0608570692        2.2764530749
 H         -3.4513890894        2.7383589534       -1.4449221367
 H         -2.0307654660        3.3758247099       -0.6279145004
 H         -2.3386344792        0.4803243249       -1.5318640125
 H         -1.6078582794        1.7661336486       -2.4922437458
 H         -1.2089053103        1.6147120148        1.2382661047
 H          0.1857161977        2.0736994182       -0.7182038823
 H          1.7585293972       -1.0626016061        0.0983668728
 H          1.9732671061        0.7768770186        0.0019516228
 H          4.0824459242       -0.0024359559       -3.6018218297
 H          3.9111634464       -1.7199629110       -2.9785300933
 H          5.7015087637        1.5323518601       -2.5569492279
 H          7.4549632238        1.9592220540       -0.9158173086
 H          8.3821255869        2.1566668600        1.2469235385
 H          9.6007273917        1.5655207664        0.0794743446
 H          9.7555579400        1.1711909789        1.8099246080
 H          7.1935456969       -4.0135490019        1.5910455035
 H          5.6011245805       -3.4864410738        0.9960801970
 H          6.8678252985       -3.9886033666       -0.1591838390
 H          5.2845912491       -2.4844014849       -1.1044617496
 H         -0.9079044884       -1.3211420508       -1.8023876243
 H         -1.5752506743       -1.1367955905       -0.1639946736
 H         -0.0753064697       -2.0423696323       -0.4181425492
 H         -5.1586041891        2.8871433109        0.1284580002
 H         -4.4369920530        2.6591163724        3.0740030006
 H         -5.4729814966        1.5392954948        2.1782085021
 H         -5.9819253647        3.2095489934        2.4243869703
 H         -3.3333402723        4.6213725979        1.8388578895
 H         -3.6175759734        4.8331988122        0.1038448950
 H         -4.9322588331        5.0599231383        1.2463831305
 H         -1.3398850314        2.7897917442        3.2567886189
