25
 energy: 41.097871771914 xtb: 6.6.1 (8d0f1dd)
C            4.59978175852631        0.93656008539799        0.17907701551963
N            2.14359706503700        0.28889912532156       -0.23530992323045
C            2.41895010659314       -0.96525665445699       -0.07494762712867
N            1.29590820540638       -1.73681486203055       -0.00421100248703
C            0.24126013035864       -0.87998268747981       -0.01729183722764
C            0.75773540801059        0.40297826057603       -0.07954535825553
C           -0.17616224873752        1.51265389768250       -0.03936598048098
O            0.06291169774277        2.69084886212287       -0.02391770628164
N           -1.51745039603974        1.03615091431693       -0.05409364968558
C           -2.55461813486982        2.05168608302066       -0.07905752595755
C           -2.00768580563320       -0.24552142467595       -0.06161597261289
O           -3.18741183511334       -0.51502318780347       -0.09569296100306
N           -1.06793676921666       -1.25457440012417       -0.00054324814753
C           -1.53909123525067       -2.62972660596913       -0.02068031659930
H            5.09799231168789        0.81869266186452        1.09079024957381
H            5.18964506661239        0.94184516927606       -0.69753360974559
H            3.65844248332438        1.36247803973474        0.18133079989771
H            3.38177539877449       -1.44094773133967       -0.00243719886196
H           -2.07184656581397        3.02018596260913       -0.08494791992845
H           -3.17292558393313        1.94406809095788       -0.96950178588516
H           -3.20030280065188        1.95796334052913        0.79426837091577
H           -1.22318640795456       -3.15423460302227        0.88009846308723
H           -1.19548665096385       -3.15297167874673       -0.91518169230563
H           -2.63020890629220       -2.59047647353565       -0.04676209861745
H            1.22171736760162       -2.74630912868593       -0.01117672061929
