25
 energy: 44.172544743455 xtb: 6.6.1 (8d0f1dd)
C            4.22738142309329        1.00053603847800        0.15054626314523
N            2.26044597399320        0.22317353710293       -0.12972355067984
C            2.48003088369360       -1.05242793237638       -0.03048456769464
N            1.33133659163421       -1.79070663338361        0.00149418869614
C            0.31024485526564       -0.89321237098113       -0.01398877473041
C            0.85863975902595        0.38857879498207       -0.03678510337922
C           -0.07864867967569        1.49771335880632       -0.02962174974633
O            0.17740216503019        2.67500193968166       -0.01914607885743
N           -1.43435091403483        1.03783487121631       -0.04967320468493
C           -2.45898528306807        2.06599607468155       -0.07258215502855
C           -1.94747285610673       -0.23200725704128       -0.06128297172027
O           -3.13209438704847       -0.47926894700236       -0.08885465872103
N           -1.01370982033444       -1.24494717852620       -0.02396463038226
C           -1.51657157905859       -2.61071866421875       -0.03078145039684
H            4.73379700253248        0.89152337798675        1.06540866391082
H            4.85294270241283        0.92673424651123       -0.70799137377611
H            3.65915020959000        1.86344359422934        0.19413188210415
H            3.44080208595740       -1.53268391036171       -0.00905358837913
H           -1.95155562243478        3.01555850729182       -0.07377723984161
H           -3.07601300156574        1.97968263314878       -0.96661889404334
H           -3.10888959835086        1.98545503304123        0.79917707221341
H           -1.22469696190643       -3.15069796736812        0.86734182878290
H           -1.19740498290859       -3.15363789033459       -0.92266055260658
H           -2.60837249938455       -2.54855232756205       -0.04861408016817
H            1.22518682904024       -2.80059723879629       -0.01264355036785
