25
 energy: -3.520749206714 xtb: 6.6.1 (8d0f1dd)
C            3.42712628575324        1.13310924108964        0.10447069314872
N            2.36545534415225        0.15023933639164        0.04499655905541
C            2.60143659566267       -1.22069937460003        0.04211779673075
N            1.40442630532820       -1.89969464400152        0.00094901476562
C            0.40047185426660       -1.00461830913853       -0.00943624844025
C            0.94152836549129        0.28513813852841        0.01562110572655
C            0.08116941953967        1.41202013591780       -0.01044376745324
O            0.42180396280254        2.59691519799299       -0.00817037675591
N           -1.30252237790061        1.04499361304956       -0.03477432678754
C           -2.27578538756699        2.12361492534744       -0.05402671154434
C           -1.84381456525849       -0.20066553718769       -0.05028299836938
O           -3.04083011879906       -0.40164949181208       -0.07286416014720
N           -0.94355501427706       -1.27464608167881       -0.03911939030907
C           -1.47623498738610       -2.61977993439932       -0.05722423500980
H            3.95515840487687        1.16376587333416        1.06293847038379
H            4.19250079224877        1.00523466174992       -0.67238012436078
H            2.95549091748855        2.09228522332356       -0.01712087133335
H            3.55477254057611       -1.69500646053306        0.03459123850099
H           -1.72826366054034        3.05814801177377       -0.03339793476671
H           -2.88579994295712        2.06312279284040       -0.95601223037021
H           -2.93378127913071        2.05003037211657        0.81218584256272
H           -1.17850763388056       -3.17282511926051        0.83627176620411
H           -1.15490097000526       -3.16040353274727       -0.94968462471840
H           -2.56493027797479       -2.53003732906238       -0.07218578523096
H            1.33023451488482       -2.90696559916003       -0.01408454125579
