25
 energy: 107.940322960692 xtb: 6.6.1 (8d0f1dd)
C            5.38623493325783        1.10817788322064        0.19121384543374
N            1.94253391435904        0.32901367616781        0.01302336604654
C            2.33721210212070       -0.96460934846525        0.00616622696068
N            1.22265381610750       -1.76053331774464       -0.01593088116069
C            0.12671836148014       -0.96728562410367       -0.03112191036027
C            0.56047444952656        0.35135771135216       -0.02366241441816
C           -0.33747705640391        1.45062198049213       -0.03073145199015
O           -0.05825868061256        2.63995662750454       -0.01578678222897
N           -1.68562012016925        1.00516607673923       -0.05596678934694
C           -2.70927548212024        2.03620040877659       -0.07754265559822
C           -2.14874626116410       -0.28061156777189       -0.06741390787498
O           -3.32835220181097       -0.55257983819853       -0.09055789828471
N           -1.18833603340630       -1.31059545573752       -0.05157805874449
C           -1.62504748937771       -2.68872099634122       -0.05343754963003
H            5.87040597321634        1.40935176175057        1.13572868876542
H            6.09747794535957        1.32452744256222       -0.62826850228210
H            2.55437862130092        1.11701238024199        0.01450498128130
H            3.34231475764746       -1.29523444583776        0.01522568175713
H           -2.21245538972027        3.00425190002404       -0.07025711961060
H           -3.31431195837270        1.92502087225488       -0.97519382136658
H           -3.35349186458502        1.93048347166425        0.79449948467477
H           -1.27883023023981       -3.20169851711182        0.84594924936521
H           -1.25883776619406       -3.20834368060864       -0.94116156547846
H           -2.71572884490193       -2.68170392013361       -0.06628504734265
H            1.24599014284165       -2.76871873692177       -0.02226465234412
