25
 energy: 7.387220682233 xtb: 6.6.1 (8d0f1dd)
C            3.61316905516221        1.08897427486516        0.11808053296476
N            2.42877895756879        0.20265913654625        0.04488972279419
C            2.58478065660753       -1.17963249410800        0.04390130144467
N            1.38809462670848       -1.85284363781228        0.00004440650985
C            0.39591999852683       -0.94737388631897       -0.01004668319013
C            0.95360591862698        0.34931899282354        0.01652433173728
C            0.04209140854066        1.44127464400718       -0.01612486986726
O            0.33983588355934        2.63418845298773       -0.01349424246626
N           -1.34179212981813        1.04036822693818       -0.03974311284498
C           -2.33350779158043        2.10061811272896       -0.05949934289379
C           -1.87346154958633       -0.20773793992159       -0.05459885943528
O           -3.06774322967281       -0.42585836377916       -0.07676636041418
N           -0.95264459669892       -1.25282206881249       -0.04156632244882
C           -1.48622001497553       -2.60335221374939       -0.05199431071336
H            4.18808633733654        1.07640508435760        1.04915177372505
H            4.37083774234184        0.98691770723520       -0.68202564896447
H            3.21190567825319        2.07740389150974        0.08235931134530
H            3.52696284978052       -1.67000896713691        0.01068509552960
H           -1.79880192111007        3.03841315570304       -0.04544289245344
H           -2.94675679234354        2.03140968125433       -0.95885440075590
H           -2.98921208099986        2.02314324762759        0.80847982027336
H           -1.19841483389573       -3.16140279314513        0.84259267723916
H           -1.17514858647552       -3.15780035241419       -0.94164964257580
H           -2.57809663138700       -2.50725714173594       -0.06680805285698
H            1.29482229063905       -2.86399147464207       -0.01533923166627
