25
 energy: 38.157909237126 xtb: 6.6.1 (8d0f1dd)
C            3.89919148129535        0.99842982959024        0.13311417020527
N            2.44097953655528        0.24337445965917       -0.10517459841116
C            2.54485839809085       -1.11998433597091       -0.00790656605445
N            1.35537077917468       -1.79308274012295       -0.00790451607482
C            0.36333877329194       -0.88325538120404       -0.01670513791491
C            0.92519149855357        0.42401060658172       -0.00753215110462
C           -0.01956096293041        1.49084620882932       -0.02505547809617
O            0.22056584539002        2.68589340864350       -0.02758972095773
N           -1.40805841542180        1.03591586588266       -0.05072622770214
C           -2.42379855734599        2.07231773313857       -0.07046759554566
C           -1.92221126687722       -0.21830883194763       -0.05997658685036
O           -3.10912867706692       -0.46933507711263       -0.08383390751438
N           -0.97995959528325       -1.23358732647861       -0.02909646673315
C           -1.49826857636416       -2.59727473778129       -0.03186917645048
H            4.51421780622588        0.90926445017742        1.02793108178671
H            4.63845630103227        0.93552804532519       -0.68669944235329
H            3.58903197086328        1.99437358960230        0.19264691404601
H            3.48591148613939       -1.60779754361906       -0.00245042263107
H           -1.91131374123215        3.01783915148995       -0.07055426006781
H           -3.04617780854945        1.99198180638354       -0.96255090255378
H           -3.07359702116422        1.99456705752027        0.80322357448444
H           -1.21660910414614       -3.15088539540301        0.86366378322504
H           -1.19478471626320       -3.15576858763640       -0.92365656823830
H           -2.59266362243245       -2.52597433705182       -0.04416157901209
H            1.24382178424063       -2.80735226673395       -0.02218708623379
