25
 energy: 109.036968057142 xtb: 6.6.1 (8d0f1dd)
C            5.19370154276609        1.20573856874390        0.21387884819388
N            1.98278800278667        0.35720875109370       -0.03132542642881
C            2.33736018118852       -0.95466305603462       -0.00459836158620
N            1.22702966226975       -1.75547808377624       -0.01319650996159
C            0.13620347147319       -0.95788651229853       -0.02236485255670
C            0.58402043472276        0.36158498783008       -0.03308845374686
C           -0.34340951956944        1.45399645410671       -0.05169657032315
O           -0.05726662573100        2.63733909786876       -0.03621146445463
N           -1.69139150874548        1.01237863363484       -0.06819968196904
C           -2.74779203665769        2.01822829961191       -0.08679853291014
C           -2.14098290142321       -0.27825181060261       -0.06493461804684
O           -3.32064497123348       -0.54771442878055       -0.09288631128041
N           -1.18130108623963       -1.30511814280754       -0.03200120841658
C           -1.62138480269747       -2.68640150225222       -0.04841012607959
H            5.77023783301663        1.44407895210574        1.13530372575792
H            5.91132263006817        1.28539052944864       -0.61361852115892
H            2.71994537717744        1.14058127508227        0.02540014906745
H            3.33943821560203       -1.29707963645511        0.00560913176020
H           -2.28793599771179        3.00418617104109       -0.08692953077315
H           -3.36393431305738        1.89039253679051       -0.97818985211010
H           -3.38584038994504        1.90518113732462        0.79042740596674
H           -1.28104115448453       -3.21018739482037        0.84702937761428
H           -1.26327388752814       -3.20498201686941       -0.94038984152979
H           -2.71070432907110       -2.68098418609762       -0.06358927335968
H            1.24479687904354       -2.76298587974867       -0.02224969704853
