25
 energy: 38.322551577439 xtb: 6.6.1 (8d0f1dd)
C            4.73835904407018        0.95117614714808        0.20283827037660
N            2.06941119238209        0.31701635548211       -0.26713810353206
C            2.37370084611058       -0.93232390566111       -0.09264526159521
N            1.26425462718498       -1.72127858693632       -0.00090172634464
C            0.19517976670779       -0.88040740866482       -0.01679911748615
C            0.69059216827539        0.40821591234756       -0.09436336735244
C           -0.23705900142200        1.52601091082748       -0.03544448753342
O           -0.00818491294364        2.70993215927469       -0.02065769850762
N           -1.56927798106346        1.03810478728045       -0.05597928434038
C           -2.61711068318855        2.04030304662632       -0.08323139591372
C           -2.04765370861448       -0.25251777220249       -0.06100758955083
O           -3.22579884053965       -0.53113019191025       -0.09811488328881
N           -1.10631438221346       -1.26440446693985        0.01129218566444
C           -1.56117840620326       -2.64449147005389       -0.01864675630911
H            5.28101013812888        0.92940546878196        1.11700751307319
H            5.36385008417092        1.00305204318901       -0.66824300698240
H            3.66015531617528        1.11377462155482        0.13543565316522
H            3.34987994185840       -1.38459766730853       -0.00582007611213
H           -2.15137200175569        3.01943248814505       -0.09198565432544
H           -3.23252441235835        1.91255967623202       -0.97211400005091
H           -3.25846027993626        1.93068283220548        0.79036499245809
H           -1.23225324892387       -3.17288373419515        0.87579945051686
H           -1.21449004405829       -3.16361790086754       -0.91556649047938
H           -2.65164180452212       -2.61670818308021       -0.04299164624164
H            1.21225395358001       -2.72336445800339        0.00525809745572
