  72
        -99.33670360
 N         -1.7069391912        2.6260018397        2.5633327239
 C         -1.6413872077        2.0326646724        1.4671106100
 C         -2.8009557484        1.9657369651        0.5059132960
 C         -3.3844695624        0.5618742586        0.4532830218
 C         -4.4761583141        0.3345448261       -0.3862671036
 C         -5.0643620943       -0.9149408057       -0.4793829942
 O         -6.1171234335       -1.2246816525       -1.2632234942
 C         -6.7329687512       -0.2079220590       -2.0177354026
 C         -4.5502229336       -1.9883906781        0.2984187405
 O         -5.1872489394       -3.1667464300        0.1470723325
 C         -4.7969341605       -4.2668600846        0.9348352948
 C         -3.4713630138       -1.7506098036        1.1349216522
 C         -2.8940474316       -0.4880326073        1.2109635862
 C         -2.2584774675        2.3560029064       -0.8898016004
 C         -1.3859407029        1.2745339207       -1.5502110611
 C         -0.0516417238        1.1257679622       -0.9296058120
 N          0.5528679518       -0.0266047860       -0.6678680548
 C          1.9367648200       -0.0463061961       -0.2557492277
 C          2.8752515153       -0.4066656061       -1.4235692236
 C          4.3071244960       -0.2655526342       -0.9896429615
 C          4.9718405965        0.9400601067       -1.1427464514
 C          6.2841392163        1.0862791001       -0.7206542498
 C          6.9573022541        0.0264992551       -0.1303150579
 O          8.2278268898        0.0520263723        0.3132204175
 C          8.9863164932        1.2293592640        0.1560607818
 C          6.2812442038       -1.2142632729        0.0360179751
 O          7.0108145600       -2.1889299492        0.6140045572
 C          6.4396317288       -3.4622567215        0.7971785225
 C          4.9688088166       -1.3359003689       -0.3921214333
 C         -0.0897009298       -1.2996144858       -0.8895869583
 C         -3.8860810797        2.9191308582        0.9979530583
 C         -4.6546595010        2.4490263914        2.1963085292
 C         -4.1510361544        4.0924938591        0.4382605511
 H         -4.8767843794        1.1598686473       -0.9523238484
 H         -7.1122276863        0.5941485942       -1.3774595066
 H         -7.5657810925       -0.6871720670       -2.5285614971
 H         -6.0469383598        0.2121580887       -2.7608124723
 H         -4.8973031794       -4.0517228320        2.0029674021
 H         -5.4753254302       -5.0741936622        0.6652536794
 H         -3.7682176955       -4.5721556464        0.7177248057
 H         -3.0751191918       -2.5438759729        1.7486372126
 H         -2.0718325999       -0.3330495413        1.8935543735
 H         -3.1043982224        2.5444690129       -1.5493808835
 H         -1.6865023194        3.2807069258       -0.7993051325
 H         -1.9308705091        0.3323548941       -1.5727561034
 H         -1.2282074171        1.5908947866       -2.5897953980
 H         -0.7308627441        1.5428026174        1.0710137655
 H          0.5399713779        2.0208846149       -0.8026323747
 H          2.0620774296       -0.7726485102        0.5523155336
 H          2.2123749130        0.9394476456        0.1261095917
 H          2.6725939139        0.2708116807       -2.2549217233
 H          2.6778493460       -1.4274497660       -1.7524867083
 H          4.4724951983        1.7768871862       -1.6073433385
 H          6.7771485733        2.0340527808       -0.8611984830
 H          8.5488718609        2.0649112941        0.7115024045
 H          9.0859282800        1.5027393668       -0.8988296112
 H          9.9691186293        1.0003361408        0.5641593273
 H          7.2192196121       -4.0689109218        1.2539919195
 H          5.5748202517       -3.4214037597        1.4672737806
 H          6.1444716299       -3.9110980271       -0.1564598004
 H          4.4495245383       -2.2745857801       -0.2780337370
 H         -0.2103497658       -1.5002367444       -1.9570170265
 H         -1.0735320611       -1.3185375002       -0.4154811814
 H          0.5194606308       -2.0886643496       -0.4545322926
 H         -6.9293144345        3.5795744055       -1.7183227737
 H         -4.8282653893        3.2772641735        2.8796819035
 H         -4.1206081020        1.6675368741        2.7264682251
 H         -5.6249671528        2.0539003687        1.8915381749
 H         -4.9116789269        4.7331010953        0.8509616104
 H         -3.6351437955        4.4800550945       -0.4222979021
 H         -6.3673350816        3.6759145653       -1.1870800442
 H         -0.8746768433        2.6535618488        3.1429706435
