  72
        -99.37433581
 N         -1.1709406287        3.0420883784        2.1420856390
 C         -1.3988816433        2.0219871070        1.4527156313
 C         -2.4626081764        1.9685402730        0.3877783952
 C         -3.1732748953        0.6265527382        0.4143934374
 C         -3.9393309414        0.2223587781       -0.6811056609
 C         -4.6329877579       -0.9760676767       -0.6825441947
 O         -5.3963603374       -1.4303978938       -1.6985191807
 C         -5.6382575528       -0.5937426888       -2.8051844436
 C         -4.5642086272       -1.8255543774        0.4545605229
 O         -5.2500300536       -2.9815415456        0.3589631547
 C         -5.3100291498       -3.8379038657        1.4767195717
 C         -3.8269391573       -1.4070667656        1.5508292183
 C         -3.1466303029       -0.1956952745        1.5319120357
 C         -1.7226189579        2.1840950207       -0.9592941466
 C         -0.8747171787        0.9918581818       -1.4524351231
 C          0.3783890046        0.7815357550       -0.6770513348
 N          0.6397753883       -0.3613197185       -0.0570750203
 C          1.8477547137       -0.5677564005        0.7333947667
 C          2.8525028549       -1.4077075987        0.0036394848
 C          4.1633868148       -1.1171948871       -0.1431177071
 C          1.3677181767        1.8931702857       -0.6720088514
 C          4.9008329277        0.0500898413        0.3005200982
 C          6.2136040061       -0.1252765697       -0.0247593606
 O          7.2804351746        0.6470242823        0.1669912351
 C          7.0786077838        1.8799235557        0.8231734391
 C          6.3584201745       -1.4264703032       -0.6991391845
 O          7.5575773088       -1.8348165544       -1.1053930585
 C          7.6365335712       -3.1059189655       -1.7161722286
 C          5.1259000193       -2.0012133984       -0.7767019093
 C         -0.2399049316       -1.5075907460       -0.1465585613
 C         -3.5568204617        3.0694849858        0.5550230806
 C         -4.2206559367        2.9829090775        1.9274501270
 C         -3.0505346569        4.4910754935        0.3246638628
 H         -4.0098721227        0.8650377813       -1.5428854395
 H         -6.1040298291        0.3484085908       -2.5001035389
 H         -6.3261285557       -1.1448446053       -3.4430826821
 H         -4.7196020120       -0.3850520942       -3.3634551598
 H         -5.7787698739       -3.3437562224        2.3330017059
 H         -5.9238782651       -4.6808970167        1.1658268472
 H         -4.3165900609       -4.1992609258        1.7611117010
 H         -3.7847778559       -2.0128489606        2.4414261481
 H         -2.6159431593        0.1070086435        2.4215511361
 H         -2.4649425405        2.3974683411       -1.7282024228
 H         -1.0923700258        3.0660997903       -0.8596416086
 H         -1.4989877426        0.1022190683       -1.4748832778
 H         -0.5836959922        1.2240391274       -2.4829763004
 H         -0.8090521249        1.0963924640        1.5310344150
 H          1.4279553721        2.3802884914        0.3033161527
 H          1.5440112172       -1.0852014516        1.6531555015
 H          2.2809433520        0.3873486964        1.0177283947
 H          2.3631912265        1.5281779698       -0.9276326520
 H          2.4856234936       -2.3420230336       -0.3954370240
 H          1.0839313805        2.6483473445       -1.3988209109
 H          4.4770877448        0.8932942530        0.8101055063
 H          6.6428285374        1.7305006657        1.8153682516
 H          6.4262604291        2.5332248390        0.2352830631
 H          8.0610975017        2.3366622127        0.9203953779
 H          8.6887359299       -3.2670261391       -1.9415539867
 H          7.2802566474       -3.8879382764       -1.0399271511
 H          7.0522294309       -3.1336243190       -2.6401974677
 H          4.8692736138       -2.9512510380       -1.2020992910
 H         -0.3677871277       -1.8242508658       -1.1827880043
 H         -1.2215704470       -1.2843990111        0.2803176951
 H          0.1951739427       -2.3339966474        0.4093898448
 H         -4.3211960609        2.8531913227       -0.2007057810
 H         -3.5140766927        3.2606767424        2.7039134646
 H         -4.5904560438        1.9795320877        2.1252928491
 H         -5.0619314665        3.6694037136        1.9698705914
 H         -2.2306587949        4.7106283987        1.0006413159
 H         -2.7280720085        4.6497497271       -0.7006987872
 H         -3.8588859932        5.1889291531        0.5274390739
 H         -0.4138664993        2.9897171990        2.8173056147
