  72
        -99.36544236
 N         -0.9081423090        2.4866437110        2.5924272491
 C         -0.9851150210        1.8575993539        1.5164842432
 C         -2.1423204351        1.9340622658        0.5592131888
 C         -2.8425347039        0.5855514212        0.5072523248
 C         -3.7814415781        0.3241418059       -0.4930030893
 C         -4.4583000177       -0.8827654292       -0.5515896067
 O         -5.3790528486       -1.2167349494       -1.4804239379
 C         -5.7733582586       -0.2607429587       -2.4358319302
 C         -4.1937974733       -1.8823827111        0.4231265993
 O         -4.8914025626       -3.0281461210        0.2842718638
 C         -4.7512349621       -4.0361647225        1.2581414714
 C         -3.2678076822       -1.6129733373        1.4178948997
 C         -2.6023572680       -0.3939711442        1.4581420466
 C         -1.5179205163        2.2801073715       -0.8182663138
 C         -0.8020574750        1.1078156581       -1.5137527780
 C          0.4712402051        0.7050577605       -0.8745138794
 N          0.8334263003       -0.5510607515       -0.6264387203
 C          2.1971567920       -0.8661433932       -0.2544978796
 C          2.9652343065       -1.3715689918       -1.4585466907
 C          3.7980368634       -0.4434549318       -2.3165275927
 C          4.0217758646        0.9454760675       -1.9361993820
 C          4.6629297209        1.2794849654       -0.7946368166
 C          5.2788025345        0.3044572070        0.0509765562
 O          5.9834029903        0.6137969363        1.1721712519
 C          6.2512581614        1.9614547590        1.4800322091
 C          5.2624190862       -1.0313590230       -0.3020871473
 O          6.0289185067       -1.8669830322        0.4303090134
 C          5.9857431791       -3.2555876777        0.1957070416
 C          4.4722485497       -1.5018055517       -1.4417011875
 C         -0.0746067752       -1.6591535823       -0.8059364839
 C         -3.2007259189        3.0100060249        0.9454672829
 C         -3.8953694552        2.6646807893        2.2606273156
 C         -2.6235657724        4.4205458635        1.0236499104
 H         -3.9964496621        1.0834227162       -1.2265911527
 H         -6.1913374212        0.6322619825       -1.9615269080
 H         -6.5442375730       -0.7453681209       -3.0317146405
 H         -4.9410859913        0.0251424845       -3.0875352525
 H         -5.0289675063       -3.6742483269        2.2524002059
 H         -5.4344524826       -4.8284032090        0.9587313593
 H         -3.7300653542       -4.4300471687        1.2846489271
 H         -3.0619947711       -2.3437092412        2.1829446218
 H         -1.9094597055       -0.2097655481        2.2643565247
 H         -2.3063137945        2.6324013119       -1.4827678855
 H         -0.8108115669        3.0996960365       -0.6841008291
 H         -1.4865881775        0.2665273216       -1.6006731613
 H         -0.5598114321        1.4499371245       -2.5285211943
 H         -0.1808674463        1.2041652173        1.1229316888
 H          1.2353871345        1.4580529450       -0.7524269215
 H          2.1803193974       -1.6283447922        0.5318916601
 H          2.6807414538        0.0267988224        0.1444028619
 H          3.7445606724       -0.6265348945       -3.3787533495
 H          2.4484227777       -2.1567886441       -1.9955636351
 H          3.6936930202        1.7090093378       -2.6234622905
 H          4.7936311887        2.3212599028       -0.5487196739
 H          5.3354667107        2.5155542390        1.7123465897
 H          6.7892113287        2.4632746597        0.6703783294
 H          6.8837329177        1.9333559761        2.3653294448
 H          6.5207238238       -3.7075493695        1.0291929873
 H          4.9590214432       -3.6322859342        0.1734636486
 H          6.4942234271       -3.5229274657       -0.7356417710
 H          4.8673157094       -2.3816602352       -1.9336273206
 H         -0.3169796179       -1.8088981292       -1.8602821007
 H         -1.0014014900       -1.4849579422       -0.2540180742
 H          0.3876694811       -2.5665586686       -0.4257587828
 H         -3.9572825987        2.9956458603        0.1521495900
 H         -3.1758083153        2.6647490662        3.0729602098
 H         -4.3724626365        1.6890093963        2.2098961553
 H         -4.6591913656        3.4075158966        2.4745940107
 H         -1.8518822903        4.4692364876        1.7855329424
 H         -2.2105576119        4.7446993903        0.0721611322
 H         -3.4146877254        5.1140568083        1.2964082727
 H         -0.0640534601        2.3799487037        3.1462992870
