25
 energy: -42.244279224771 gnorm: 0.002679138168 xtb: 6.6.1 (8d0f1dd)
C            3.30577606906321        1.60830601157440        0.06038364494985
N            2.56439098121917        0.37426987097005        0.09889977557597
C            3.05457791027342       -0.85480709258150        0.19500371433462
N            2.05334533315947       -1.75584487766264        0.19514364490120
C            0.87455278014297       -1.07813745157359        0.09547082910470
C            1.19765706173963        0.27409810478161        0.03561942622183
C            0.16470915860699        1.27663571369802       -0.06758996330226
O            0.31556989558526        2.47272533446913       -0.12932962024634
N           -1.10857363491275        0.67320590982955       -0.08858500885160
C           -2.26281529822642        1.55014301732390       -0.18418040195822
C           -1.31375476481662       -0.67386715615293       -0.03154222846799
O           -2.57116910270458       -1.02598150483512       -0.06404202563911
N           -0.36190832409386       -1.57540168558648        0.05717637343454
C           -2.88861291013847       -2.41598976252784       -0.04702614688601
H            3.90413915613059        1.72125126989469        0.96461052710797
H            3.96945281182384        1.62557662415606       -0.80436212270615
H            2.59847418304110        2.43438576085246       -0.01143871845493
H            4.09662565126236       -1.10036196966452        0.26367183280750
H           -1.89598853550681        2.57350453993278       -0.23864744855255
H           -2.83992285178081        1.31230855029015       -1.07653965384187
H           -2.89841736770477        1.42824210299605        0.69168089029646
H           -2.27972609891223       -2.94550979684207        0.68679375819849
H           -2.72216723991859       -2.84827680974234       -1.03650188246129
H           -3.94427543949269       -2.47249117832616        0.20832917567980
H            2.14849209024821       -2.75974498367711        0.25817324666045
