25
 energy: -42.136023850271 gnorm: 0.002604874674 xtb: 6.6.1 (8d0f1dd)
C            3.24133627228073        1.11518598953813       -0.01882704676337
N            2.30565725658985        0.02481014064473       -0.01709317495630
C            2.59976932720419       -1.28014655330573       -0.04789571450810
N            1.45436500424734       -2.00972038569084       -0.01431018678423
C            0.40327692907656       -1.14173767500688        0.04174204090800
C            0.93300619067524        0.14651903967059        0.04260168049198
C            0.11289926507714        1.31455395525438        0.08118375104288
O            0.46560095786300        2.47630885071892        0.06189336183397
N           -1.28609324410923        0.97269705475239        0.15106664728912
C           -2.15952932552670        1.98966113832170        0.22306752264288
C           -1.82711934890626       -0.34091564594603        0.14396554653629
O           -3.01534706896980       -0.52679757224285        0.18633282460846
N           -0.92213434867656       -1.39915564181164        0.08197717443384
C           -1.43585877056006       -2.75462581398972        0.07434147157351
H            3.75803570547681        1.17577338170402        0.94080081610343
H            3.98027246625634        0.97718210179913       -0.80745836536669
H            2.69670468142819        2.04436801597298       -0.18245974486964
H            3.58694990601415       -1.69172322871056       -0.09569445328505
H           -1.76480776766452        2.98978190773269        0.22901251635588
H           -3.42606429793220        4.25514672985540       -1.51068699637658
H           -3.20815586189939        1.76926049567907        0.27687654371263
H           -1.10942540558874       -3.29262227554015        0.96523087683877
H           -1.10766844284864       -3.28046943343815       -0.82248072008716
H           -2.52366316493661       -2.69724875368666        0.07440950769951
H            1.40842459952911       -3.01784728067479       -0.02642426117400
