  25
        -42.09013414
 C          3.2266922505        1.1214328023        0.0182206026
 N          2.2647266827        0.0528952552       -0.0009154251
 C          2.5576659291       -1.2517865317       -0.0104405168
 N          1.3901819015       -1.9344464240       -0.0077000822
 C          0.3446703818       -1.0575264507        0.0028455240
 C          0.8982366880        0.2180874350        0.0082201724
 C          0.0712753356        1.4034326900       -0.0008336484
 O          0.4640108833        2.5464982930       -0.0154004534
 N         -1.2870601194        1.0765175985        0.0037261178
 C         -2.2423507949        2.1720033593       -0.0038007833
 C         -1.8561311586       -0.1866105033        0.0049000125
 O         -3.0457001384       -0.3502212958        0.0045256378
 N         -0.9795301573       -1.2866978832        0.0052969942
 C         -1.5292149110       -2.6269792267       -0.0013250732
 H          3.7176869068        1.1652217406        0.9919737638
 H          3.9859031176        0.9481954659       -0.7432995819
 H          2.7185131053        2.0669458571       -0.1661815247
 H          4.8998176577       -3.0056095736       -0.0882586188
 H         -1.6912264142        3.1093087661        0.0020070829
 H         -2.8727188087        2.1088057548       -0.8920017127
 H         -2.8888157380        2.1060293549        0.8723853974
 H         -1.2015181931       -3.1740316671        0.8830777544
 H         -1.2206009345       -3.1580302861       -0.9022641056
 H         -2.6148160081       -2.5417201681        0.0106303614
 H          1.3285494424       -2.9420500246       -0.0130566283
