72
 energy: -99.406435177993 gnorm: 0.009064478494 xtb: 6.6.1 (8d0f1dd)
N           -1.74146286541358        1.83028575048025        2.30751711753835
C           -1.76231565123652        2.16057169405157        1.09644597314262
C           -2.90975578376411        1.83897901953481        0.17258283685959
C           -3.47485444053173        0.42878617442610        0.31711317626151
C           -4.50349612565409        0.03175603186850       -0.54379848652727
C           -5.03608795489728       -1.24604281039605       -0.50718874456117
O           -6.02914641723459       -1.70275430135694       -1.29933490988114
C           -6.66884544959956       -0.81906569889049       -2.18892978470319
C           -4.52166109153733       -2.19383604515334        0.41810731254039
O           -5.08302855151834       -3.41881053318107        0.36969415001680
C           -4.67307150474140       -4.39601068840591        1.29743623881475
C           -3.50931891264608       -1.79286849648049        1.27473323194732
C           -2.99742049721318       -0.50162315252270        1.22640356711003
C           -2.42625529372583        2.03398476961289       -1.28179593978758
C           -1.48519101810287        0.91692053315928       -1.76576706477659
C           -0.15904069068530        0.96403101741380       -1.11790769811521
N            0.47345282288408       -0.05857623700843       -0.56502071174732
C            1.84888680570277        0.08389744246421       -0.14713717307379
C            2.82575198823697       -0.33376680085611       -1.26471498157835
C            4.24606657021358       -0.09380657023932       -0.83487432296811
C            4.84339331710853        1.14097734212007       -1.03111757193867
C            6.14835610760085        1.37149485938482       -0.62411854454928
C            6.88318738243330        0.36928804612509       -0.00720002902130
O            8.15454690207820        0.47758200660099        0.42035170647198
C            8.84693286358524        1.68876222514390        0.22258421450012
C            6.27678811302577       -0.89989533237445        0.20438602329563
O            7.06131726208272       -1.81648056934132        0.80491040855682
C            6.56131093816978       -3.11387384267101        1.02446871970211
C            4.97003214467852       -1.10561370414422       -0.20878408531709
C           -0.09060508998285       -1.38648279342643       -0.54277330720618
C           -4.05601295226434        2.86275177852327        0.48387036438608
C           -4.62551024804845        2.65941690255290        1.88894892064145
C           -3.62671061928085        4.31772060637321        0.28551740326885
H           -4.90545433364272        0.73274093735990       -1.25655480219454
H           -7.11674585313471        0.02737207509246       -1.66000591628065
H           -7.45514975655633       -1.40155816581553       -2.66529404526385
H           -5.98026909048835       -0.45082103371342       -2.95659674719553
H           -4.82961240281828       -4.06240967805197        2.32721567967536
H           -5.29707684431782       -5.26601977809128        1.10144115610412
H           -3.62126249847378       -4.66649008274627        1.15595530916792
H           -3.10893613729897       -2.48275091453106        1.99981235685940
H           -2.23885034725785       -0.21948543653626        1.93684252545857
H           -3.28742610938635        2.06690955257046       -1.94753662660216
H           -1.90918633867963        2.98991852835187       -1.36587097648975
H           -1.96834596392217       -0.04908089972606       -1.63430325675196
H           -1.33376051642253        1.07479363223780       -2.84126216984450
H           -0.97445968934421        2.77785314854894        0.62730141205412
H            0.37979924117491        1.89935703882698       -1.14819138286639
H            2.01987224954229       -0.53277430823924        0.73764676464152
H            2.04120442483677        1.12505973621371        0.11929682595030
H            2.60527675979824        0.25473561531081       -2.15745188607087
H            2.67837393711070       -1.38796626584407       -1.50233838766002
H            4.29796576508431        1.93424628736468       -1.51971439333455
H            6.58908103830031        2.33920594914120       -0.79916459162282
H            8.36870948748519        2.51593483564120        0.75591317699294
H            8.92563294787017        1.93539955393099       -0.84043489573320
H            9.84281234968955        1.52500456133895        0.62969234900635
H            7.37402391615696       -3.66539722028433        1.49319082112013
H            5.69775232292936       -3.10261962669978        1.69728922997661
H            6.28795814750126       -3.60273079162740        0.08410604492152
H            4.50426682198727       -2.06722894336374       -0.06191405676105
H           -0.17142055915637       -1.79622009284441       -1.55212802869806
H           -1.08358152061015       -1.37026354396243       -0.08843564675921
H            0.54890496294760       -2.03848261180810        0.04654614113777
H           -4.86087096143540        2.65785375899314       -0.22896874978700
H           -3.86711294175449        2.80740658962098        2.65517694239216
H           -5.02712080445691        1.65610828395774        1.99685793698035
H           -5.42457639570737        3.38286454422030        2.06090163657697
H           -2.77960454886787        4.57254926651840        0.91604990406109
H           -3.36951371159310        4.52063657479539       -0.75131140232432
H           -4.45007252213993        4.97543629964054        0.55135147717521
H           -0.95494098767249        2.15735352331339        2.87154710529361
