25
 energy: 38.275373784276 xtb: 6.6.1 (8d0f1dd)
C            4.77728075172356        0.95109584301076        0.20622909982472
N            2.07190238364144        0.30895278217343       -0.30189856293914
C            2.36444386964688       -0.94044766292884       -0.11991652817136
N            1.25611190147454       -1.72530046329250       -0.01075417172281
C            0.18941256162822       -0.87974052783929       -0.02010769825601
C            0.68602933265121        0.40893383427113       -0.10772361807042
C           -0.25883532310511        1.51808770003076       -0.02938003037383
O           -0.06896736253585        2.70551444932882        0.01472653810426
N           -1.59218725922104        1.03080265897922       -0.05869484081495
C           -2.64152116572994        2.03028196142516       -0.09328994166752
C           -2.06306255841231       -0.25940772265006       -0.06333133278356
O           -3.23858513863811       -0.54152391057684       -0.10626628271082
N           -1.11096935833224       -1.26499751012054        0.01847291147027
C           -1.56457525099444       -2.64659854994325       -0.00804597302412
H            5.28861271479359        0.91265252658560        1.12893534108741
H            5.41371161683086        1.05188198161196       -0.65501279915203
H            3.71495141197323        1.12275520540376        0.17168760528803
H            3.34015602719839       -1.39846350204661       -0.01824557009603
H           -2.18426132932721        3.01535301510359       -0.10130376610286
H           -3.25079965866416        1.89164389290464       -0.98459701029402
H           -3.28544467759610        1.91786453176348        0.77734819919984
H           -1.24268219338316       -3.18178376457655        0.88413000075281
H           -1.22591980662852       -3.17318911595840       -0.90447266538333
H           -2.65395731423687       -2.61441291716843       -0.03091693780624
H            1.20427315036662       -2.72916673944673       -0.01314929108372
