25
 energy: -3.381261355305 xtb: 6.6.1 (8d0f1dd)
C            3.42819248245900        1.13425263506645        0.10387467242873
N            2.36634580970981        0.15114426845110        0.04353900683166
C            2.60051881877294       -1.21948867867400        0.03398298968153
N            1.40424746366559       -1.89959478289464       -0.00069402597880
C            0.40021581267871       -1.00367666656224       -0.00945663467433
C            0.94128236527489        0.28671446312355        0.01605729115845
C            0.07863104778792        1.41266302610068       -0.00762583678420
O            0.41330365472659        2.59938852513442       -0.00558859827475
N           -1.30534350863596        1.04382346232544       -0.03462468896480
C           -2.27929406140894        2.12186889324886       -0.05481273983233
C           -1.84592969332268       -0.20149349200862       -0.05059084937105
O           -3.04281116914485       -0.40160807241686       -0.07328828208823
N           -0.94400844206704       -1.27461205999913       -0.03899648876329
C           -1.47693898347656       -2.61951706197219       -0.05496749056334
H            3.95234158962539        1.16531184717922        1.06396343639720
H            4.19838682293389        1.00928370979801       -0.67060031962065
H            2.95097943456810        2.09145848465574       -0.01837360210827
H            3.55504316073489       -1.69337141929012        0.03369391713925
H           -1.73209414830103        3.05662868269391       -0.03449061973348
H           -2.88910317418112        2.06093403078412       -0.95701931536135
H           -2.93784650962938        2.04863635291971        0.81109835454729
H           -1.18100976503436       -3.17037182504193        0.84030993644628
H           -1.15684371278958       -3.16232951419107       -0.94620335216210
H           -2.56549406928243       -2.53013737511277       -0.06985609442283
H            1.33084189814259       -2.90761822363647       -0.01525762655933
