25
 energy: 8.020589759782 xtb: 6.6.1 (8d0f1dd)
C            3.61616961027316        1.09161174832131        0.11669302021849
N            2.43274997616095        0.20138708493189        0.03744764004926
C            2.58420895985573       -1.17963542708823        0.02982193782411
N            1.38701678293224       -1.85206632683254       -0.00326960622002
C            0.39523501580261       -0.94500233973755       -0.00992096749679
C            0.95342304866203        0.35262412996762        0.01762402980888
C            0.03663431258573        1.44280280119127       -0.01029713511559
O            0.32036788619275        2.63894010144812       -0.00697499985875
N           -1.34828556819146        1.03802687202250       -0.03974537225594
C           -2.34134178745101        2.09714071708493       -0.06172063417373
C           -1.87762723830537       -0.21013739347552       -0.05573607870085
O           -3.07119657173499       -0.42917745169699       -0.07911227380200
N           -0.95338087695486       -1.25282673913089       -0.04066127615911
C           -1.48700957654852       -2.60335634447289       -0.04684072117086
H            4.18395576342726        1.07989017451390        1.05120909863273
H            4.38371769356670        0.99828715768293       -0.67904344308066
H            3.20257594439464        2.07714476144485        0.08124148739222
H            3.52363349242779       -1.68058770300842        0.00498285296271
H           -1.80721254602314        3.03511731906702       -0.04846479862379
H           -2.95391449405958        2.02670237973905       -0.96149567895980
H           -2.99813835248480        2.02020827844351        0.80547407368271
H           -1.20399283324478       -3.15762296288411        0.85106827154272
H           -1.17794973928980       -3.16143640233931       -0.93463691748350
H           -2.57844764211810       -2.50825666624158       -0.06203507415940
H            1.29514739469160       -2.86383678453462       -0.01786707758015
