25
 energy: 43.771365723871 xtb: 6.6.1 (8d0f1dd)
C            4.36467887297286        0.96346416997249        0.15417574843844
N            2.21921341296681        0.24521035296249       -0.17546178179867
C            2.45443841045799       -1.02033206167020       -0.06295164317618
N            1.31487631839906       -1.77299185330109       -0.00991901048531
C            0.28326028405426       -0.88397604490835       -0.01932346055440
C            0.82036784032016        0.39796229660901       -0.05747593278413
C           -0.12773418806059        1.50419621788449       -0.02608229224596
O            0.09195234318779        2.68598731651382       -0.00358780372684
N           -1.47895383563544        1.03324825397673       -0.05162894789942
C           -2.50930612146377        2.05571666666913       -0.08138745542696
C           -1.97799562607570       -0.24130717880933       -0.06379545827501
O           -3.15810568753764       -0.50235606508706       -0.09663417927050
N           -1.03399897437726       -1.24665778983453       -0.01583056217347
C           -1.52214673601839       -2.61739311672875       -0.01331199501435
H            4.83782930731274        0.83050763848400        1.07787910765360
H            5.00693888091675        0.93787463060270       -0.69274455609371
H            3.69337477248591        1.74478719920170        0.20952767413640
H            3.41690054261903       -1.50763442136266       -0.02450242372336
H           -2.01378194612122        3.01449319962783       -0.08433196771581
H           -3.12374943430418        1.95844028867493       -0.97613414827058
H           -3.16086613434702        1.97337845485273        0.78850400355273
H           -1.22459918104001       -3.14069681495384        0.89406953108022
H           -1.19350106412682       -3.16031456801372       -0.90027270393321
H           -2.61349485698737       -2.56174662357688       -0.03599649277875
H            1.21396391762515       -2.78423427888743       -0.02309953191385
