25
 energy: 60.638299796917 xtb: 6.6.1 (8d0f1dd)
C            4.97377326302724        1.19933043990760        0.24314876120285
N            1.95112858034134        0.31667201998342       -0.17243039334944
C            2.30088653781679       -0.92546754500714       -0.06938739861066
N            1.21896393605373       -1.76241550576302        0.01514908641312
C            0.12755832366945       -0.95676727522163       -0.02624313713644
C            0.58869946596922        0.34696673284467       -0.11308565957861
C           -0.33495215348839        1.47133924075718       -0.05432098186992
O           -0.06801979925032        2.64675775255374        0.00062139625264
N           -1.67092324701093        1.02085860386835       -0.06938353272203
C           -2.73780182140380        2.01946238762970       -0.09414544733508
C           -2.13300780549513       -0.28083016438520       -0.06175905797641
O           -3.31434031272355       -0.54300616145143       -0.09826521348417
N           -1.18500623960991       -1.29895791690651       -0.00620601106427
C           -1.61517448638004       -2.68232671034359       -0.03340881526982
H            5.56255462295858        1.30225010299595        1.17993521924419
H            5.72268117161351        1.28229880482291       -0.57572652691192
H            3.57434519451258        1.22540288331089        0.09428940352256
H            3.31303773392929       -1.28339107666050       -0.04989939375427
H           -2.28480576643804        3.00831430743020       -0.09390182820301
H           -3.35148376392483        1.88836114687382       -0.98725523858262
H           -3.38198243418190        1.90788431304349        0.78007701710326
H           -1.26981971026433       -3.19819538021404        0.86039378369687
H           -1.25058167063643       -3.19829270464560       -0.92725668908692
H           -2.70255967469127       -2.67674847477786       -0.04347656654352
H            1.23284449532836       -2.76866931763378        0.00308037760347
