25
 energy: 108.296729378070 xtb: 6.6.1 (8d0f1dd)
C            5.41135452565553        1.21590150057314        0.17350733731147
N            1.96744400806042        0.30717967859058        0.00914171156998
C            2.33020156294759       -0.99601802475074        0.00173727872744
N            1.20982994350823       -1.77525624018940       -0.03004048163235
C            0.12341279676430       -0.96924496688111       -0.03619005098986
C            0.57319051266746        0.35165137275845       -0.02736996988689
C           -0.33089785884483        1.45184376450957       -0.02259520045687
O           -0.05294849007610        2.64051571652532        0.00189013635416
N           -1.68639530512871        1.00493385458603       -0.05697882735759
C           -2.72491835657581        2.02560808026855       -0.08259390265716
C           -2.14957328465391       -0.28170378107916       -0.06925880453766
O           -3.32957118997854       -0.55473139365696       -0.09281132783966
N           -1.19266396842695       -1.31406975160546       -0.05131183851705
C           -1.63299294537148       -2.69402463879380       -0.04716009603346
H            5.90253193729659        1.41899245467100        1.14723599353573
H            6.17265816700534        1.40422450385883       -0.61770796787410
H            2.64961008737475        1.04974696614331        0.02918133921763
H            3.33919743550507       -1.32426439248413        0.00927732900798
H           -2.24071242993116        3.00021897236213       -0.07668572953872
H           -3.33146948549011        1.91306303556556       -0.98043918966592
H           -3.36699273533924        1.92501539946405        0.79080652089645
H           -1.28906429230328       -3.20696279138377        0.85339016008618
H           -1.26949948501086       -3.21864130150934       -0.93358433489215
H           -2.72343380637150       -2.68727538418016       -0.05832139374903
H            1.23053520821176       -2.78212877726972       -0.02271384322197
