25
 energy: 94.096875441587 xtb: 6.6.1 (8d0f1dd)
C            5.11505631121296        1.18944713664820        0.20284181548956
N            1.93884076180105        0.31171816270701       -0.10877778363635
C            2.29467535009034       -0.92651180595537       -0.03281112249408
N            1.21741688819432       -1.77138750459125        0.00929511945902
C            0.12202985711923       -0.97151262124105       -0.02323209112419
C            0.58057435371528        0.33543239605129       -0.07613973386596
C           -0.34246384069366        1.45465304688339       -0.05877781489082
O           -0.05694839750108        2.62397085280082       -0.01724317332015
N           -1.67929863998183        1.01039610749302       -0.06402106540273
C           -2.72324563224097        2.02648514876003       -0.08765482217322
C           -2.13911892222109       -0.28628087249281       -0.06577057241591
O           -3.32015987083415       -0.54515977343591       -0.09459785036366
N           -1.19090550593194       -1.30924093125125       -0.02007036925597
C           -1.62850942124209       -2.68950243517820       -0.04045526361549
H            5.66578922163057        1.37410825603449        1.14530478087552
H            5.88015163030271        1.29694336096066       -0.59933245502112
H            3.39630868703279        1.16451473083671        0.06214620857050
H            3.31086914449209       -1.27475775725942       -0.02932541813166
H           -2.23699417963809        3.00193982448642       -0.08190885607419
H           -3.32449959414760        1.91158157037853       -0.98694245943204
H           -3.35832846777706        1.92316044969616        0.78867838715632
H           -1.28484132483648       -3.20734611006410        0.85505909315498
H           -1.26358251893036       -3.20836354142941       -0.93040197155611
H           -2.71552610728665       -2.68728860104391       -0.05362162021777
H            1.23833701110314       -2.77906498428453       -0.00925051313631
