25
 energy: 44.241760261618 xtb: 6.6.1 (8d0f1dd)
C            4.23417841577796        1.01097939583717        0.15065607669375
N            2.25795751369516        0.22489295117087       -0.14626056182885
C            2.47508451324578       -1.04974331697611       -0.04915742776789
N            1.32733228204103       -1.78997929152933       -0.00814106191043
C            0.30599880112839       -0.89005586946211       -0.01681337494108
C            0.85338196996402        0.39223672045747       -0.04087273466634
C           -0.09285253201720        1.49908927924514       -0.02126663690153
O            0.13667509446076        2.68116936227544       -0.00545753189393
N           -1.44922160373444        1.03488294490420       -0.04994221412446
C           -2.47515935471001        2.06162291544180       -0.07853846781809
C           -1.95714360699074       -0.23500660721931       -0.06320266024505
O           -3.13984247548598       -0.48595300900988       -0.09328851712776
N           -1.01661679270502       -1.24310797120952       -0.02248492752869
C           -1.51678298960700       -2.60891210282181       -0.01776491413523
H            4.72521126255152        0.89698443647255        1.07191868031182
H            4.88270585747332        0.94611046080155       -0.69599892283286
H            3.65285652573454        1.87127025951927        0.20426903697719
H            3.43460830922296       -1.54076810794550       -0.02191646492269
H           -1.97117510697249        3.01369879842349       -0.08046155424183
H           -3.08961877797657        1.97066775309782       -0.97394913328055
H           -3.12709253030791        1.98199500946861        0.79139552610131
H           -1.22183983192509       -3.13484796916555        0.88788571311255
H           -1.19730176573845       -3.15743217796756       -0.90495407945588
H           -2.60854608716723       -2.54639386089464       -0.03647250034670
H            1.22581546811315       -2.80180429925456       -0.02184975778347
