25
 energy: 49.685197592406 xtb: 6.6.1 (8d0f1dd)
C            4.97479984297792        1.12407859239859        0.27868034593999
N            1.97139930245730        0.32236846581595       -0.21620677172759
C            2.31411643468041       -0.92219399846390       -0.09683089244440
N            1.22621232409473       -1.74344771739966        0.01939295273330
C            0.13959059389433       -0.93367016054651       -0.02399271017024
C            0.60138746597037        0.36821884301692       -0.13257954885116
C           -0.32938740117282        1.49128444924330       -0.04929614199137
O           -0.05909198617300        2.66518372430220        0.02281081917761
N           -1.66575675694296        1.03536696113386       -0.07837674187273
C           -2.74581872279085        2.01771724465747       -0.10203476420693
C           -2.11720231398043       -0.27023797049903       -0.06366617226475
O           -3.29833729834333       -0.53599574996906       -0.10042619885581
N           -1.17214448652429       -1.28764011761611        0.00544727757093
C           -1.60850485200389       -2.67213742750567       -0.02730740744071
H            5.53888941007815        1.22896867853392        1.20530674120548
H            5.72002525096535        1.18121110854734       -0.53596899616269
H            3.68522868622586        1.21887386301706        0.11070483793368
H            3.32356157914665       -1.30649603784283       -0.05862071970799
H           -2.32111039698178        3.01617972856524       -0.10971399323751
H           -3.36091768581661        1.86077721438132       -0.98807899445015
H           -3.37677546179111        1.88830828404264        0.77863974057488
H           -1.27648684790411       -3.19978543233376        0.86410380383403
H           -1.25537827509905       -3.19346118761964       -0.92416631049985
H           -2.69535349191648       -2.66338465292196       -0.04091656826269
H            1.22534031143230       -2.74769166507193        0.00380589592899
