25
 energy: 27.030301495416 xtb: 6.6.1 (8d0f1dd)
C            3.79858556687051        1.02854369448593        0.11773174406842
N            2.46535707576050        0.23591231121735       -0.05596477861388
C            2.56077170277066       -1.14009499777017       -0.00837238234842
N            1.36689566466642       -1.80850613454365       -0.00910372748491
C            0.37817849683819       -0.89656821447399       -0.01422977748580
C            0.94098822540513        0.40965049029880        0.00173295943654
C           -0.00615798389771        1.47751699952147       -0.01444561736363
O            0.22928126485859        2.67791045471759       -0.00649734872686
N           -1.39423061781439        1.03409940143390       -0.04555718099706
C           -2.40447080630975        2.07623584575919       -0.07082467093563
C           -1.91100880652854       -0.21936058975096       -0.06038918464164
O           -3.10031397343559       -0.45903214571331       -0.08526718883193
N           -0.96971431248485       -1.23705287927849       -0.03543929616806
C           -1.49543894639902       -2.59649626608296       -0.03197759387612
H            4.39927741752124        0.98037393634093        1.03347842024592
H            4.57394142315233        0.97833769720972       -0.68312681436700
H            3.44607134105982        2.02497321197471        0.15056450508333
H            3.49933422550309       -1.63786303284409       -0.01164871073658
H           -1.88349766069846        3.01854252035389       -0.06597171152183
H           -3.01958764680169        1.99798256271961       -0.96832960147805
H           -3.06043164838912        2.00033636097467        0.79770068239907
H           -1.22106681562405       -3.14894848801991        0.86787366809228
H           -1.19747302937664       -3.16339086147387       -0.92003456771823
H           -2.58894516402834       -2.51466936587290       -0.04412136903564
H            1.26129395627171       -2.82255037562343       -0.02093498243461
