  25
        -42.09012232
 C          3.2203853105        1.1316080472        0.0148277325
 N          2.2675155501        0.0585051500       -0.0009812946
 C          2.5599961129       -1.2501693048       -0.0075373466
 N          1.3920891255       -1.9329645172       -0.0061734782
 C          0.3472743633       -1.0575674579        0.0012170469
 C          0.9036653287        0.2153374526        0.0055686679
 C          0.0754552263        1.4013393371       -0.0021350110
 O          0.4718646655        2.5432962860       -0.0139372703
 N         -1.2822548884        1.0775536412        0.0014979484
 C         -2.2300836898        2.1787841105       -0.0014017062
 C         -1.8530376571       -0.1846888906        0.0036827982
 O         -3.0430519162       -0.3467888874        0.0058283393
 N         -0.9777604410       -1.2864267775        0.0018643597
 C         -1.5325545283       -2.6232400284       -0.0016651013
 H          3.7267175654        1.1730479064        0.9815884706
 H          3.9731726815        0.9739015724       -0.7573689558
 H          2.7031776037        2.0756229556       -0.1552758122
 H          4.3227278126       -3.4408862147       -0.0106355920
 H         -1.6705541144        3.1122783928        0.0062945160
 H         -2.8631428493        2.1259651092       -0.8892034135
 H         -2.8764456814        2.1179543634        0.8761363394
 H         -1.2134802454       -3.1709614455        0.8862515769
 H         -1.2248268224       -3.1617074378       -0.8992881534
 H         -2.6187085673       -2.5324217867        0.0054513918
 H          1.3374266286       -2.9406733446       -0.0121645498
