25
 energy: -42.436157139464 xtb: 6.6.1 (8d0f1dd)
C            3.17173927611510        1.17462174871921       -0.00142913532135
N            2.27368111431880        0.05921864316165       -0.00946770163626
C            2.60833441480387       -1.27669713586932        0.01990934628066
N            1.45009347676634       -2.00565212156114        0.02692615888096
C            0.39573687007124       -1.15305451560659        0.02020026945783
C            0.87847089672395        0.15352527657237        0.00751976242330
C            0.04845379795560        1.28188824375720       -0.02259853367990
O            0.41556040640250        2.46200830067240       -0.08420017830527
N           -1.34278713724314        0.95133196121987        0.01017892845946
C           -2.13427229766468        2.04531334170187       -0.12122657604705
C           -1.85193509180431       -0.35120554428865        0.00012109704486
O           -3.04531168100678       -0.58409170962896       -0.01597570397156
N           -0.93671117664631       -1.41586858248382        0.01386158363040
C           -1.40155738151869       -2.78402787729605       -0.01739677320306
H            3.63663008570605        1.28135358278857        0.98177866865872
H            3.94892072703129        1.03762418736707       -0.75517593678641
H            2.58680168039602        2.06947714549454       -0.21751107824807
H            3.59776894047011       -1.69400245153785        0.02505845927177
H           -2.27261665023495        4.50345029407954        0.42754201813791
H           -1.62494424195855        2.94677114076103       -0.46219929731540
H           -3.19039060005398        1.88075854271330       -0.21143308061805
H           -1.09369579747444       -3.30255495039274        0.89213793243870
H           -0.99470263011370       -3.30255066603484       -0.88803920703786
H           -2.48569947233902       -2.79633396330076       -0.08286062824467
H            1.37770367421592       -3.01267113839816        0.02945087087859
