72
 energy: -99.394688676410 gnorm: 0.002488925324 xtb: 6.6.1 (8d0f1dd)
N           -1.98609415645506        3.12866874505988        1.89596737763747
C           -1.87180343518571        2.09556248342785        1.19134761781727
C           -3.01895666023631        1.79009549775028        0.25019233256047
C           -3.49523477941741        0.36019012267688        0.33668214160330
C           -4.40387053326651       -0.13654901495605       -0.60028383889355
C           -4.86279933364382       -1.44156882562523       -0.53954825333153
O           -5.74724237680718       -1.99695558896209       -1.39456650787734
C           -6.35420443471909       -1.19130435295085       -2.37692748326142
C           -4.39065271655851       -2.30224726306293        0.48838231385212
O           -4.87055964586356       -3.56132407781552        0.45695094072773
C           -4.49244379635690       -4.46342611157955        1.47044151206426
C           -3.50319118115826       -1.79668476115845        1.42495420639553
C           -3.06734004874970       -0.47987102254487        1.35297267997976
C           -2.55840148366920        2.14732066778073       -1.18169651027595
C           -1.57096299414304        1.13564993030509       -1.79147791295644
C           -0.24344974274452        1.16279455473461       -1.14594561167363
N            0.39900123408530        0.11568999843950       -0.65378878723468
C            1.76866020850363        0.23976490556487       -0.21137942279334
C            2.75168497978076       -0.21747420918713       -1.30684413721878
C            4.17264708739568       -0.03913451036016       -0.85104651477547
C            4.82790104194735        1.16697581144343       -1.04095930659634
C            6.13848739797315        1.33653729751346       -0.62315393417742
C            6.82118924909380        0.30086380701356       -0.00094120217048
O            8.09383156658524        0.34728104031963        0.43209162241908
C            8.84659620060984        1.52190842544234        0.23294612682798
C            6.15268686456443       -0.93731766778088        0.21006406606855
O            6.88782779285356       -1.88737606400857        0.82028953281272
C            6.32523402531865       -3.15779126737940        1.04569358850237
C            4.84134758960907       -1.08231903397970       -0.21505227388819
C           -0.16663166416198       -1.21270140204150       -0.67526120451092
C           -4.07524347201599        2.83464392307479        0.74030202687364
C           -5.25307016539317        2.22409262068561        1.49010950032680
C           -3.25378034303775        3.76051954848161        1.67578978844301
H           -4.77030186521207        0.51584438433736       -1.37576036635962
H           -6.89327973099530       -0.35065392055450       -1.92938665483887
H           -7.06205760182770       -1.83948115130612       -2.88963565053000
H           -5.62244760637129       -0.81495430450588       -3.09924756042014
H           -4.78892882172198       -4.10306160786919        2.45988073262146
H           -5.02139204833588       -5.38856073819532        1.25031994258520
H           -3.41390171775984       -4.65127831450112        1.45780867423478
H           -3.14918984997821       -2.41860367853814        2.23095700819521
H           -2.40023698232967       -0.11189763035643        2.11732314403300
H           -3.42984267200891        2.20362582326565       -1.83471467716116
H           -2.09780082707064        3.13674591730764       -1.15931774543910
H           -2.01236148194642        0.14077215186028       -1.77406708513924
H           -1.43312296995741        1.42533913224494       -2.84065824516675
H           -0.97172779049249        1.50457825099314        1.23330564489192
H            0.26045885626949        2.11549042177085       -1.08336611210768
H            1.91285411242390       -0.36732351963526        0.68586424622314
H            1.97529662377678        1.28101329771054        0.04302764722404
H            2.57352279375203        0.37914210330612       -2.20335622888582
H            2.56678698701642       -1.26528889812011       -1.54699836576076
H            4.32312542177724        1.98441789963905       -1.53288316755385
H            6.62485330330333        2.28273343243952       -0.79417249811794
H            8.40813759492107        2.37349015533016        0.76180275216900
H            8.94114277666224        1.76060263742633       -0.83061995258631
H            9.83163701815134        1.31023001216431        0.64430345546827
H            7.10901078325809       -3.74384360265916        1.52161945062933
H            5.46053105936971       -3.10074657692010        1.71461581901990
H            6.03276864015038       -3.63957640741009        0.10753601936234
H            4.32988558812891       -2.02101035557883       -0.06957368729783
H           -0.25225191403567       -1.59177202851673       -1.69600669748518
H           -1.15771657221869       -1.21169623911654       -0.21607687443742
H            0.47425329851655       -1.88401273938150       -0.10939941959005
H           -4.45874005337618        3.40356380426490       -0.10902484917318
H           -4.90867271963046        1.64548483950823        2.34412509831749
H           -5.83689968632530        1.57155738759527        0.84614005845974
H           -5.90445947877316        3.01794189506411        1.84800627114619
H           -0.80307301400559        5.16931156216870       -0.49637770896787
H           -3.07355252265293        4.74710510193982        1.24186651718843
H           -3.73933153122233        3.91049871639733        2.64194655598911
H           -0.55762207697973        4.92389810261089        0.20515487858040
