25
 energy: 55.680976545472 xtb: 6.6.1 (8d0f1dd)
C            3.03863333508248        1.21813158961200        0.09763726612884
N            2.20448364283763        0.04755445398618        0.00955853497166
C            2.61091624107805       -1.25408065375351        0.14859297728732
N            1.47715368811549       -2.05341349929109        0.01767205995621
C            0.38100542088072       -1.23365240939277       -0.01800995498555
C            0.82138953913170        0.06604465659280       -0.01159766460205
C           -0.08173109795209        1.18617839402758       -0.07893841359871
O            0.37980204749838        2.31954362822668       -0.18442502491313
N           -1.41774377876974        0.88965082894147       -0.02732551620868
C           -2.13632257259617        2.90066767176872        0.02063653037812
C           -1.90214299792509       -0.38949522491285       -0.02665617020023
O           -3.06676297064827       -0.71296389580299       -0.03338977663681
N           -0.92970792679899       -1.51249057610199       -0.04345840315509
C           -1.33223730893052       -2.89494514608924       -0.06430432122404
H            3.26613097894848        1.45476602763786        1.13792558264242
H            3.97344689957176        1.04698345949842       -0.41062399192845
H            2.43417172855467        2.03557949709378       -0.32226106747128
H            3.58737056195749       -1.56027256024524       -0.14565043445596
H           -1.19366716137874        3.39454053948547        0.09132708828733
H           -2.63423591346511        2.93639902595284       -0.91379897835335
H           -2.71299605549134        2.89200380200507        0.90204097966556
H           -0.92743167311479       -3.39621218799809        0.82192138428749
H           -0.89986287955817       -3.37668171553649       -0.94623909751844
H           -2.42914077299714       -2.89973127861203       -0.08051884310569
H            1.51348245889431       -3.05925134038243       -0.00395893142944
