25
 energy: -4.618891766862 xtb: 6.6.1 (8d0f1dd)
C            3.20070280251296        1.19508919536629        0.09044825022564
N            2.29068517695844        0.09566771368580        0.02682813583373
C            2.60115704116785       -1.25614983532392        0.03932768485710
N            1.41658329228872       -1.96184681503709        0.00196505932400
C            0.38908563318822       -1.08911343329452       -0.01276817992434
C            0.89781283132269        0.20204846303902        0.00607295943147
C            0.07973505241096        1.34776070105041       -0.01388446256662
O            0.44949498085033        2.52640483200694       -0.02108180889105
N           -1.31952143827785        1.03669808612220       -0.03218187017413
C           -2.17760025012319        2.23958910583334       -0.03814459123980
C           -1.85614729239752       -0.22308980393360       -0.04971667801999
O           -3.04925564882420       -0.44001762697634       -0.07066099480763
N           -0.95347909748367       -1.32820280667285       -0.04092526203072
C           -1.44536560488391       -2.68736127110063       -0.06192444500810
H            3.64686434086182        1.28765885792115        1.08497499156989
H            3.99312884338200        1.08315134657442       -0.64367980663966
H            2.62877023629411        2.09853179495487       -0.12577736489174
H            3.58542947929973       -1.65216580035164        0.02288730452060
H           -1.52548026015672        3.10937152695906       -0.01016342296742
H           -2.79366056946072        2.26194745988696       -0.94096037394889
H           -2.84467856036511        2.23744744375922        0.82538516173047
H           -1.12062152453668       -3.23469816173665        0.82784381429311
H           -1.09438358946998       -3.21473577392718       -0.95351359165779
H           -2.53291116055097       -2.62704056540239       -0.07773700461136
H            1.36587641086845       -2.96946872298103       -0.00627389492599
