25
 energy: 11.627409276929 xtb: 6.6.1 (8d0f1dd)
C            3.10473835114520        1.22059368252854        0.10136703087926
N            2.23776546061044        0.08365267300597        0.00646593130398
C            2.59637809969520       -1.25711961739388        0.10329463955890
N            1.42665182004252       -2.00780127105089        0.00145644752484
C            0.37143267058191       -1.15997939254848       -0.02254409726501
C            0.84192607923858        0.13831625378813       -0.01164864140767
C            0.00571091560168        1.26812790431158       -0.04212174601707
O            0.45589359941621        2.41970154804384       -0.08866277304699
N           -1.42207189726024        1.04828359357313       -0.02750035662255
C           -2.10555529250588        2.44775817240318       -0.00974266639812
C           -1.91831289812116       -0.26791720498856       -0.03848389019372
O           -3.09089980177092       -0.56594930234209       -0.06117063109502
N           -0.97208906811249       -1.39130637019951       -0.04279479887170
C           -1.39581582858203       -2.77557683564476       -0.06160274424035
H            3.46501040987470        1.38846369999264        1.11902564568528
H            3.95243982944542        1.10053761164866       -0.54314101591343
H            2.50130812053640        2.08269768039792       -0.20329937520463
H            3.58885004806501       -1.60190790559864       -0.12218082128330
H           -1.27366452141396        3.15471444073887        0.02401231687602
H           -2.70703259807281        2.59539620611928       -0.91506718828751
H           -2.76420559787078        2.56114979688436        0.84975612483295
H           -1.02588707271472       -3.30516463797075        0.82412830291798
H           -1.00128934819888       -3.28797171986101       -0.94600906903887
H           -2.48736002566402       -2.76602532187695       -0.07779446317901
H            1.43076293318700       -3.01798227635490       -0.00190890062845
