25
 energy: 54.147141349664 xtb: 6.6.1 (8d0f1dd)
C            2.96684341511053        1.19168242889706        0.06942290810489
N            2.19638807894017       -0.02196568876144        0.02536546112864
C            2.66582298339042       -1.26305587235580        0.01894717658740
N            1.62404817642493       -2.13405172893037       -0.00581480800928
C            0.45868991662685       -1.40489014703837       -0.01428380437377
C            0.83019897000920       -0.06845808155285        0.00911718323134
C           -0.20792927163872        0.99187516473260       -0.02836256520644
O            0.10173100619405        2.17467308126368       -0.04836396928793
N           -1.45412731717469        0.51245888394473       -0.04529724840845
C           -2.33678951822977        3.97037018489298        0.00558314233183
C           -1.86206779717921       -0.72650306400632       -0.05026836759827
O           -2.99105862128186       -1.14259571573332       -0.06382235274879
N           -0.79781597361621       -1.81811865586344       -0.04306630888553
C           -1.19369996764210       -3.20133389138155       -0.06678156585281
H            3.22175060207952        1.43972941905862        1.10146469160068
H            3.88320893670836        1.07867140130498       -0.50802124883409
H            2.35327186250147        2.00032175006365       -0.33068106059985
H            3.69695651201167       -1.54531959012801        0.02921907768948
H           -1.27321641482586        4.05872307005557        0.04432974103698
H           -2.82768286091710        3.87218538729372       -0.93838535222290
H           -2.89034512386858        3.79733357604432        0.90291744253578
H           -0.85071876013371       -3.72470791877319        0.82910083394656
H           -0.81653542974020       -3.70500895170719       -0.96025622288361
H           -2.28520044382187       -3.20517512622902       -0.08741666825912
H            1.70049134504545       -3.13781112634807       -0.01761220282921
