25
 energy: 56.225849172093 xtb: 6.6.1 (8d0f1dd)
C            2.97688148757897        1.21227019210449        0.07623033760441
N            2.20366952934883       -0.00618446039432        0.04240422150805
C            2.65849522368082       -1.26321432928335        0.06873352731037
N            1.58942375975595       -2.11318046539527       -0.00387738387648
C            0.44225502108232       -1.35478072784144       -0.01934266673118
C            0.83945237246675       -0.03305364265196        0.02539149621686
C           -0.17850016884912        1.05527090397095       -0.06602408642868
O            0.19814116120242        2.21018099044025       -0.18595823487596
N           -1.42972566915711        0.62719547492959       -0.04178972257667
C           -2.27334844654372        3.56948600516654        0.04167109288588
C           -1.85655012814304       -0.61480826060303       -0.03517578206121
O           -3.00077877330568       -0.98681908198392       -0.03716256354434
N           -0.83082989967077       -1.72497669039629       -0.04575550318346
C           -1.24750583636248       -3.10075367038514       -0.07339916611141
H            3.03701446632172        1.60871819007213        1.09143063858311
H            3.95671566981799        1.03898423071461       -0.35506148996616
H            2.45452383145646        1.95591463755025       -0.52211409361880
H            3.68227138548106       -1.55230129798603       -0.07491225300539
H           -1.25938416516924        3.88063753737566        0.13570784542496
H           -2.73501896030659        3.52769007146621       -0.91754939953620
H           -2.89065668978403        3.44871762737873        0.90548492770983
H           -0.89616793201260       -3.62151091767626        0.82149620970364
H           -0.85957170681931       -3.59764617606203       -0.96609843945484
H           -2.34689157437845       -3.09093996472109       -0.09878462200924
H            1.65284626119062       -3.12043119739404        0.01597505959375
