25
 energy: -42.131707273810 gnorm: 0.007330712688 xtb: 6.6.1 (8d0f1dd)
C            3.15792794156932        1.41844360119253        0.00597883905707
N            2.35641766027532        0.27855874412900       -0.02594196450007
C            2.55600605226601       -2.34899143468351       -0.23444103056394
N            1.27235510732968       -2.24050213404751       -0.13316340978137
C            0.47065024769003       -1.11283715288957       -0.05245900817157
C            1.06304813949183        0.16963503885976       -0.01607795496738
C            0.15011494479745        1.34859974567347        0.04458766741097
O            0.55782409435939        2.49247022064400        0.05662894729190
N           -1.19440243179516        1.05724129697987        0.08819117020453
C           -2.14135125382505        2.16027457756255        0.14918537384809
C           -1.76118427760778       -0.20228517701335        0.07477145143824
O           -2.95480007653648       -0.36190541385077        0.12603465985345
N           -0.88255942605640       -1.28317566195818       -0.00583752098644
C           -1.48676215561019       -2.60293302437195       -0.03998238091253
H            2.56702259665388        2.32863132549265        0.17568286432471
H            3.90704346228171        1.31021062251106        0.79689569256136
H            3.69472511032908        1.51930562747149       -0.94461191172164
H            3.22874974683589       -1.50240752040641       -0.28147633520651
H           -1.58593105893197        3.09581780038084        0.16275586607789
H           -2.80239657636428        2.12576299793891       -0.71830104500065
H           -2.75421028707690        2.06900609826840        1.04715681289618
H           -1.19417609463255       -3.19447662803571        0.83003762483334
H           -1.24282552784301       -3.12436858719535       -0.96757628260198
H           -2.56861703420444       -2.46000867514999       -0.00335363738148
H            0.74776261068669       -3.12182774591869       -0.10351287010398
