25
 energy: -3.530977469740 xtb: 6.6.1 (8d0f1dd)
C            3.25226164523661        1.21927774505911        0.09725413498160
N            2.34590561812211        0.10988097739662        0.02395642594192
C            2.66314910460216       -1.23952301002676        0.03958518140663
N            1.48518342240288       -1.95089992036928        0.01385420720869
C            0.43599904578140       -1.10410143100703       -0.01002211524896
C            0.94903907797050        0.19922437522876        0.00147588508971
C            0.13906305988633        1.35272447943504       -0.01484165594484
O            0.48677789228352        2.53893873271030       -0.01454679109685
N           -1.24633391555686        1.00378514277018       -0.03475916525241
C           -2.20316279878110        2.09560095953388       -0.05015139910018
C           -1.78285401188197       -0.23836175294678       -0.04782572310436
O           -2.98726175269687       -0.41246485481243       -0.06674796672599
N           -0.91814812001127       -1.35821450781474       -0.03803151312177
C           -1.63156540076280       -2.62773044646600       -0.06449444972774
H            3.76103775000376        1.25832126104742        1.06645888618444
H            4.01186354036738        1.15417195609594       -0.68741909701084
H            2.67426608345622        2.13671914082068       -0.02689666227130
H            3.64169530390112       -1.66364753711749        0.05296057551019
H           -1.63635169484613        3.02553199815505       -0.02723667633996
H           -2.81066167232190        2.03634296949810       -0.95309071630477
H           -2.85646836224748        2.02035927680614        0.81864992457358
H           -1.44803097887249       -3.23415866777667        0.82323025253922
H           -1.43417578181064       -3.20449299984813       -0.96917899965221
H           -2.68746541492134       -2.36065046195909       -0.07031532060416
H            1.44929440718611       -2.95569408975808        0.01783217544779
