25
 energy: 45.009240894538 xtb: 6.6.1 (8d0f1dd)
C            3.34381924807751        1.62907143233030        0.12567595090356
N            2.69408294885640        0.34026704957155        0.05943261246918
C            3.17217309023852       -0.90114459926435        0.08924577042710
N            2.14401824610988       -1.79433097958636        0.05496780220485
C            0.94807940011423       -1.10091141235109       -0.00077493355012
C            1.33578663017795        0.24708305727078       -0.01069142045259
C            0.37577444068525        1.30151678811116       -0.07845771071301
O            0.63622309214944        2.50086517658356       -0.11798952246194
N           -0.89428961166561        0.80751225965466       -0.07864497491345
C           -1.97172792510108        1.77993978688367       -0.06741237561545
C           -1.25122300675814       -0.57027446015435       -0.03126774647288
O           -2.44060539433927       -0.77522634789697        0.00351599336117
N           -0.29049223425622       -1.54179517677826       -0.01917315002535
C           -3.75505251201570       -3.05893179199669       -0.13893150362008
H            4.07243030355476        1.66201278478163        0.92964726656332
H            3.81333635810890        1.86983441529276       -0.82443412795680
H            2.56894355050237        2.38419793334943        0.30244616832498
H            4.20561272736744       -1.17544131944929        0.14188913874365
H           -1.49446772946757        2.76047958711182       -0.08495825127079
H           -2.61176294914906        1.63380779751421       -0.93614319360826
H           -2.57236964367153        1.65634956729080        0.83382011775416
H           -3.62159537786428       -3.62895322678272        0.74569925880833
H           -3.70698109444876       -3.51740384695379       -1.09390424394251
H           -3.90015503182472       -2.01551460925773       -0.06910449301953
H            2.23194867385981       -2.80192263090476        0.08778243641188
