25
 energy: 39.140220355317 xtb: 6.6.1 (8d0f1dd)
C            3.49826780362493        1.77935631575960        0.10764470795714
N            2.83873183919513        0.49769920030953        0.06941956716725
C            3.36184470878013       -0.71846258219257        0.09169188077660
N            2.37723610754707       -1.64740567002076        0.06208059055323
C            1.15712018067336       -0.99551885770367        0.01923129762940
C            1.48096793713681        0.36708307452012        0.01885491349401
C            0.44214893764240        1.35593083741932       -0.02706246421111
O            0.62716571024626        2.56758196221854       -0.04028723789518
N           -0.79484949461914        0.76794780037071       -0.05155858554735
C           -1.94289856831977        1.65353948556038       -0.07095330762321
C           -1.07666651833205       -0.63596118948941       -0.03048674564712
O           -2.23926557427113       -0.96167785988070       -0.03436207135850
N           -0.03947236162280       -1.51490526609389       -0.00641307875715
C           -4.39128906106157       -3.32418695935865       -0.16789492690067
H            4.17147127788248        1.84325291766519        0.95978371941490
H            4.04880027337332        1.96332537152219       -0.81216608818260
H            2.72395035096231        2.54623092216922        0.19334586851677
H            4.40823913584889       -0.94169763410568        0.13003116829327
H           -1.55302767336710        2.67013805801403       -0.07931739454127
H           -2.54472631005602        1.45987215095517       -0.95790554514257
H           -2.55682249678829        1.47961989783844        0.81265746423908
H           -4.51153749688067       -3.87454586632692        0.73562947760527
H           -4.63490314046130       -3.74572368457191       -1.11485928896744
H           -4.22135218730819       -2.27362337011101       -0.10842830196305
H            2.50160238738513       -2.65027598931889        0.07945380207745
