25
 energy: 50.907131641732 xtb: 6.6.1 (8d0f1dd)
C            3.27043852145571        1.36876492352641        0.11467977084074
N            2.48323145844118        0.15660639562804        0.03613718101486
C            2.85574336024536       -1.13154987879419        0.05599182839753
N            1.74017325075627       -1.92608074360642        0.03078856319908
C            0.60387849129540       -1.13519981267788       -0.01371649243683
C            1.10985614533875        0.17695943912821       -0.01863897942462
C            0.25141186201800        1.32789450041829       -0.05254054530340
O            0.59646101328979        2.50565649915941       -0.07046173669906
N           -1.06023084704078        0.94997147070978       -0.05727419921386
C           -2.08570573186020        1.97936127673084       -0.05773322172659
C           -1.54416083887050       -0.36482483940067       -0.03185084687695
O           -2.75951041571155       -0.39350001653964       -0.00082095418137
N           -0.69458867275731       -1.44471968575153       -0.03058911161785
C           -2.59828149509190       -2.93621854181479       -0.10094936707178
H            3.87893138265291        1.39369350153355        1.02062965491836
H            3.93718093716515        1.46297294228698       -0.74590966829235
H            2.57022740689119        2.21205581522000        0.13681496156498
H            3.86517968641138       -1.49709079219845        0.09988116963174
H           -1.57210605192474        2.93777812623731       -0.04319895953602
H           -2.70994866070473        1.87315594959675       -0.94573260655853
H           -2.72436595410940        1.86286726652076        0.81882823398513
H           -2.34436084640464       -3.42681783927411        0.80518578619120
H           -2.36656042794731       -3.34447953331110       -1.05222206149538
H           -3.18761214645369       -2.06088290048946       -0.05625522515084
H            1.76181857866348       -2.93430840267334        0.06242027742797
