25
 energy: -42.106005733746 gnorm: 0.003265119988 xtb: 6.6.1 (8d0f1dd)
C            3.12162592957764        1.16502419161207       -0.05060674192440
N            2.21511245815383        0.04885892267932       -0.02659599008149
C            2.53703916219278       -1.24149526935612        0.00239519964666
N            1.41246010634708       -1.99505712169967        0.02704307622248
C            0.34065702700695       -1.15403868725146        0.01341109138547
C            0.83947035521718        0.14210000889216       -0.01904378931356
C           -0.01055213471463        1.29381375118520       -0.04641232582279
O            0.32299878072950        2.45755509955380       -0.08560423162824
N           -1.39796732058599        0.92039396962487       -0.02478313601728
C           -2.29736960984287        1.91329642011575       -0.02280204084904
C           -1.90979336253362       -0.41430541128688       -0.01155084080206
O           -3.09090299355984       -0.62339332386364       -0.02215082759230
N           -0.97669885438849       -1.44497016324576        0.01669303901795
C           -1.45011380638867       -2.81722505843736        0.05092953508725
H            3.60779661501978        1.28042657309394        0.91929539685199
H            3.88622348896796        1.01447352154692       -0.81148535912483
H            2.55643751902994        2.07038717588167       -0.26792122754388
H            3.53431894056797       -1.63334497565678        0.00616531145372
H           -1.43908757594886        4.70011186598374        0.17825650214766
H           -1.93493618269072        2.94139749078420       -0.00773657825848
H           -3.34204722495664        1.66581794268929       -0.01495368794196
H           -1.12759485478614       -3.30709869497259        0.96989916988120
H           -1.08741065423251       -3.36656057049445       -0.81777072347686
H           -2.53865909166687       -2.79350526308073        0.02593000086651
H            1.38942479758533       -3.00442385269744        0.05057079571625
