25
 energy: 79.030068352304 xtb: 6.6.1 (8d0f1dd)
C            3.81710071264804        0.80570034943585        0.17417078873410
N            2.63260739418556        0.03256578654820       -0.00083951141260
C            2.73181594294538       -1.29976152670742       -0.20801007535670
N            1.50651604537701       -1.86905726053005       -0.17800653380252
C            0.53583389592830       -0.89775758688686       -0.05561762887255
C            1.24090282904959        0.36526187284840        0.06164881375207
C            0.60448738113420        1.52965601588732        0.17468668921343
O            0.31836352678422        2.65531853813144        0.43208568851160
N           -2.52023782733256        1.13504826287529       -0.11574138901830
C           -3.22798823978381        2.33936049518608       -0.11129372920876
C           -2.99887111802145        0.04293865196241       -0.13986376164300
O           -3.54502204024292       -0.96865464219111       -0.17432583105933
N           -0.72354621919468       -1.06692765191605        0.00590584652129
C           -1.17182295845335       -2.44467864567181        0.10384243982774
H            3.70123066136013        1.63760503494201        0.89413542201170
H            4.53483386239195        0.02418678839801        0.46696797162623
H            4.17413511904339        1.41523711897381       -0.65971163261151
H            3.65051424414455       -1.81511933592656       -0.25248534172738
H           -2.48420690900655        3.14663252672185        0.04315371012722
H           -3.77852969922500        2.43005663920924       -1.05654298924493
H           -3.96863333670757        2.25640576001323        0.68590140072811
H           -0.64092754039326       -2.88202227447258        0.95128110622788
H           -0.89199404755777       -3.00608808706532       -0.79701086853147
H           -2.25611854685874       -2.47489906993561        0.26394373754665
H            1.32749096773815       -2.83845935722717       -0.34216076407272
