72
 energy: -99.326167841091 gnorm: 0.004037279690 xtb: 6.6.1 (8d0f1dd)
N           -1.77420015003305        3.12410209858893        2.60414954889996
C           -1.73693011641780        2.41906317423085        1.57106361439630
C           -2.89779281747785        2.32919668945635        0.59553998268991
C           -3.39630851677084        0.88208297406998        0.53433445936316
C           -4.27008557928754        0.52623689030400       -0.44984753915294
C           -4.59236020308249       -0.90418925761660       -0.71831355110178
O           -3.65051871687715       -1.32406022195638       -1.74419427027692
C           -4.08599919736976       -2.40281584697717       -2.53748824136344
C           -4.38847649692092       -1.76168559545980        0.50356966948825
O           -5.03088285441495       -2.94286331905354        0.42415803245171
C           -4.89085674429222       -3.87832127026656        1.47263946929966
C           -3.55851882321233       -1.34789887043969        1.50813220424727
C           -3.00590192599355       -0.06010291588798        1.50148464204390
C           -2.34006199044403        2.76069783176218       -0.78728231445630
C           -1.52603442739608        1.68366089595311       -1.52767023828338
C           -0.22847704412390        1.37023851008324       -0.89346584697316
N            0.25417630139684        0.15289246641878       -0.67901445568799
C            1.62147537798962       -0.01510144604792       -0.24767361783658
C            2.54929127056106       -0.39158361356097       -1.42060566422337
C            3.98647380730949       -0.24868362739913       -1.00534595062909
C            4.63728327333863        0.96485252311778       -1.15164595359383
C            5.95535608912725        1.11742747993995       -0.75010973976630
C            6.64790957210581        0.05614643823525       -0.18717205942871
O            7.92854922222475        0.08905132405179        0.23225942730874
C            8.66933405114091        1.27651303312372        0.07243792265854
C            5.98624502044339       -1.19119841046449       -0.02509626449289
O            6.73375428939232       -2.16780107546901        0.53089069015642
C            6.17580448566218       -3.44836559034293        0.70073130207542
C            4.66836981749924       -1.32021709653184       -0.43348643663084
C           -0.46479454127629       -1.04441493487891       -1.03973438762648
C           -4.02750354754252        3.19264347735112        1.06254812612476
C           -4.68631598919821        2.85583133127926        2.33461645791584
C           -4.40567076998679        4.44262475700730        0.37498167819398
H           -4.64315299562142        1.24225433060117       -1.16239291577109
H           -4.33420728773220       -3.27676610055604       -1.92875721276547
H           -3.25818740337456       -2.64534382133271       -3.20197199685584
H           -4.96120363773580       -2.12238029432194       -3.13413040873088
H           -5.23649370907161       -3.46034937411196        2.42178606482670
H           -5.51572758484689       -4.72609914509508        1.19880364394105
H           -3.85256123816323       -4.20690968535374        1.57462511750865
H           -3.33124533193417       -1.99688065970558        2.33916298948091
H           -2.33514555306603        0.22013494346743        2.29730037957345
H           -3.17532429421528        3.02670197740747       -1.43183639632386
H           -1.72404787050804        3.65227571517057       -0.65289658508353
H           -2.13548992995749        0.79151659619264       -1.66307956384588
H           -1.31475209080242        2.09114650037845       -2.52524154557454
H           -0.86737198947697        1.83554047009507        1.23178029516774
H            0.43180821471113        2.19558769223236       -0.66944225666925
H            1.66462531630110       -0.79326149851917        0.51894679904564
H            1.97690727112154        0.91874641045645        0.19318874819072
H            2.34177537993486        0.28124176160810       -2.25490894031820
H            2.34503042013732       -1.41340099831397       -1.74093087120051
H            4.12269722443141        1.80360026779265       -1.59592805368008
H            6.43712528919085        2.07166277548461       -0.88619227919250
H            8.23464893314915        2.10110146539426        0.64599559229008
H            8.74377163741801        1.56332652037351       -0.98094969978776
H            9.66297364050123        1.05497191834172        0.45697066762643
H            6.96570957075857       -4.05491274858474        1.13949948075806
H            5.31797919526395       -3.42616495629656        1.38075511560091
H            5.87378618071999       -3.88525958301057       -0.25626598690757
H            4.15942837793705       -2.26491022562289       -0.32317285485398
H           -0.45053255330420       -1.19961337936686       -2.12110053522895
H           -1.50584852561743       -0.99079182969641       -0.72202890335970
H            0.00422328775771       -1.89943316769553       -0.55867411140266
H           -5.60310857847556       -1.03559671856111       -1.12383721177595
H           -4.16101536974016        3.37187173577294        3.14685812327115
H           -4.64035971954822        1.79083634139457        2.54982654666767
H           -5.72060419561540        3.19405130167496        2.34570415998277
H           -3.53009412409603        5.04126672681787        0.12151402178852
H           -4.93188567031406        4.24067036408750       -0.56287566113296
H           -5.06740088199598        5.03414945590069        1.00177798446254
H           -0.93654593318853        3.14559963536224        3.17799240707527
