  72
        -99.39811674
 N         -2.7579652471        2.2247665326        2.9049828646
 C         -2.2413255987        2.5055385811        1.7969638225
 C         -2.8260650386        2.0814211204        0.4761268626
 C         -3.4764584488        0.7045911191        0.4592586325
 C         -4.0644149885        0.2659155422       -0.7311142998
 C         -4.6459994360       -0.9859491412       -0.8402597144
 O         -5.2457225051       -1.4730015455       -1.9469940132
 C         -5.4034250413       -0.6396917851       -3.0705833880
 C         -4.6301595051       -1.8648865593        0.2764946610
 O         -5.2036184521       -3.0685830536        0.0796055230
 C         -5.2848860492       -3.9724703578        1.1568591531
 C         -4.0441582684       -1.4256415870        1.4529571900
 C         -3.4812925503       -0.1594893708        1.5429030272
 C         -1.7132767311        2.1164687404       -0.6015060642
 C         -0.8430757369        0.8580425907       -0.6553464555
 C         -0.1592772966        0.5600456666        0.6868255025
 N          0.5498789205       -0.7004505703        0.6807652697
 C          1.9905743983       -0.6782204703        0.6544525369
 C          2.5540899470       -0.2803952023       -0.7239796705
 C          4.0477611664       -0.1420797149       -0.6368131783
 C          4.6212298717        1.0887052176       -0.3614291652
 C          5.9955857722        1.2216127729       -0.2431366187
 C          6.8258365607        0.1200837269       -0.3927543595
 O          8.1676100729        0.1321533090       -0.2992568207
 C          8.8269839750        1.3517347446       -0.0466278962
 C          6.2460044901       -1.1490347091       -0.6731643573
 O          7.1232300481       -2.1621573787       -0.8063283011
 C          6.6478467878       -3.4496144264       -1.1204377911
 C          4.8686292500       -1.2567452409       -0.7862097191
 C         -0.1268170913       -1.8317675256        0.6539653877
 C         -3.9258753055        3.1518551830        0.1458835591
 C         -5.1382825947        2.9820081217        1.0557057786
 C         -3.4063361531        4.5863558526        0.2336061358
 H         -4.0772979298        0.9180617973       -1.5882661893
 H         -5.9706718247        0.2629446456       -2.8239712319
 H         -5.9625486315       -1.2291278654       -3.7946004733
 H         -4.4376341713       -0.3593792450       -3.5036319064
 H         -5.8481799351       -3.5493041760        1.9936487655
 H         -5.8122423732       -4.8420307513        0.7695941364
 H         -4.2912227060       -4.2758261176        1.5020225311
 H         -4.0295946005       -2.0615040554        2.3233848733
 H         -3.0784872604        0.1570103337        2.4906211799
 H         -2.1671192163        2.2465446988       -1.5843766839
 H         -1.0705391031        2.9813417261       -0.4287350682
 H         -1.4565876020       -0.0001279035       -0.9326578090
 H         -0.0924949884        0.9934943773       -1.4372965001
 H         -1.3582536692        3.1525377194        1.6959555897
 H          0.5481631267        1.3538008591        0.9308704570
 H          2.3700416323       -1.6652158752        0.9251081881
 H          2.3456815234        0.0398739384        1.3998719031
 H          2.1234841450        0.6725398742       -1.0310937819
 H          2.2778357483       -1.0404781827       -1.4561551773
 H          3.9978111545        1.9625116707       -0.2465901551
 H          6.4121524899        2.1935356493       -0.0362518545
 H          8.5300768602        1.7754388206        0.9175673929
 H          8.6374144689        2.0803915692       -0.8405652700
 H          9.8878732221        1.1108895560       -0.0234019287
 H          7.5337082769       -4.0766015352       -1.1993421496
 H          5.9976807935       -3.8410686554       -0.3315845279
 H          6.1125103670       -3.4574317380       -2.0748430847
 H          4.4178956572       -2.2119627153       -1.0048873271
 H         -1.1999347038       -1.8082960720        0.6818661465
 H         -0.9334989098        0.5134332744        1.4560559721
 H          0.3942019805       -2.7692306398        0.6326613961
 H         -4.2425411426        2.9763684756       -0.8866837188
 H         -4.8398804713        3.0197972168        2.1005985704
 H         -5.6292795680        2.0287227357        0.8795379077
 H         -5.8533313645        3.7790571292        0.8698500475
 H         -3.1730163139        4.8563233971        1.2604802036
 H         -2.5230768230        4.7367182847       -0.3816437754
 H         -4.1765832641        5.2668821060       -0.1215259797
 H         -2.3237686395        2.6224514821        3.7325376156
