  25
        -42.10457887
 C          3.2276755175        1.1478562520        0.0158225431
 N          2.2859014050        0.0600902186       -0.0009152224
 C          2.5720917133       -1.2373597446       -0.0114086292
 N          1.4338021322       -1.9623638498       -0.0162906773
 C          0.3768545048       -1.0858041894       -0.0079229932
 C          0.9186351498        0.1943388603       -0.0006945156
 C          0.0965753287        1.3839075131        0.0021635826
 O          0.4990766850        2.5253028192        0.0059728951
 N         -1.2636529207        1.0556715155       -0.0026901911
 C         -2.2147872135        2.1628685655       -0.0233205391
 C         -1.8419974263       -0.1833624516        0.0046125163
 O         -3.0262425578       -0.3639884496        0.0090680261
 N         -0.9547658472       -1.3386164446        0.0031493710
 C         -1.5194760064       -2.5578521404        0.0116559896
 H          3.8554701297        1.0903673802        0.9049349518
 H          3.8656165015        1.1108055918       -0.8672496751
 H          2.6756554769        2.0873176943        0.0234961841
 H          3.5604998215       -1.6533112986       -0.0154392849
 H         -1.6490293611        3.0909028873       -0.0125142058
 H         -2.8276938898        2.1038329664       -0.9217397910
 H         -2.8672101399        2.1058945694        0.8465314128
 H         -0.9185742455       -3.4413776829       -0.0365685681
 H         -2.6034673876       -2.6088959854        0.0408195855
 H         -4.4784462498       -2.7652413849        0.1619946778
 H          1.3880687520       -2.9708645831       -0.0219550063
