25
 energy: -42.544704164572 xtb: 6.6.1 (8d0f1dd)
C            3.21884155116370        1.18196478794155        0.08994288496050
N            2.27642630993715        0.09084003022688        0.05762698683940
C            2.54843782650461       -1.22693163135595        0.07620245692156
N            1.45470269138842       -1.97405274626036        0.02191082891494
C            0.40791243797115       -1.09953628157361       -0.01860117176208
C            0.90291725824107        0.20084030572674        0.00937491046782
C            0.08019036325130        1.38415561803619       -0.00167455265810
O            0.47827022747061        2.53644909931636        0.00123163472986
N           -1.28153110301086        1.07855642663184       -0.03613067815450
C           -2.23572489927660        2.18322096804656       -0.05453942405364
C           -1.82700584516977       -0.19200233661805       -0.05584619250789
O           -3.02695509896039       -0.35656015346134       -0.08039357964988
N           -0.94881324189677       -1.27716367204430       -0.05235133577304
C           -1.50531372447235       -2.61306395314958       -0.06108736840975
H            3.74991882713182        1.19459004084571        1.04345739088352
H            3.95447018349628        1.07367028909004       -0.70931361787750
H            2.67581891508926        2.12092908183661       -0.02738885639038
H            3.55297718274599       -1.61278600403825        0.06119883710177
H           -1.67614987056230        3.11910767358429       -0.03613101877917
H           -2.84544633130816        2.13041455528438       -0.95588137162774
H           -2.89465914496050        2.11664069597343        0.81120710020230
H           -1.18382247311068       -3.15326663624690        0.82796947249605
H           -1.17212080853088       -3.13761801621588       -0.95435724455121
H           -2.58745579532052       -2.52296177436317       -0.06871985580785
H            1.99613233017019       -3.60620681415982       -0.03760442749029
