  25
        -42.11832716
 C          3.0990967486        0.9855743088        0.1896031402
 N          1.9919628913        0.0609719756        0.1585181011
 C          2.1321496328       -1.2389383612        0.3813173282
 N          0.9410474406       -1.8330760993        0.2652694059
 C          0.0004104877       -0.8755290083       -0.0355988881
 C          0.6669664045        0.3424093753       -0.0963912456
 C          0.1866596834        1.7655518539       -0.2826208846
 O          0.9976902936        2.6671787045       -0.5098865191
 N         -1.1146480688        1.8864007945       -0.1395651628
 C         -1.7438373997        3.1564010888       -0.1706544350
 C         -1.8204416939       -2.2583621400        0.4661555651
 O         -1.7434888594       -3.1591619168        1.2099241497
 N         -1.3447590417       -1.2711542841       -0.2116534964
 C         -2.1699844818       -0.5746416106       -1.1981801133
 H          3.6409518029        0.8839215168        1.1285230998
 H          3.7765926082        0.7781496156       -0.6388745401
 H          2.7188799956        2.0026352929        0.0805906646
 H          3.0542773981       -1.7339403512        0.6167761377
 H         -1.0356046105        3.9642463629       -0.3798124846
 H         -2.5299155462        3.1523388468       -0.9301090113
 H         -2.2198053613        3.3361920470        0.7978044962
 H         -1.8145173364       -0.8062801148       -2.2027099569
 H         -2.0761089225        0.5012517313       -1.0039772130
 H         -3.2037969327       -0.8934716555       -1.0918255509
 H          0.7632294814       -2.8198386368        0.3970472414
