  25
        -42.07947391
 C          2.9680843233        0.8902937527        1.0052285077
 N          2.3626408237        0.1999738541       -0.1126465851
 C          3.0094735187       -0.1235535054       -1.1393497497
 N          1.0994769045       -2.3051167277        0.1805703701
 C          0.3522763782       -1.2693532553        0.0764397992
 C          0.9403041259        0.0244227095       -0.0548519895
 C          0.1541048919        1.2297127426       -0.1260478220
 O          0.6408377990        2.3435159439       -0.2099686986
 N         -1.2193246802        1.0368492338       -0.0910446638
 C         -2.0824588871        2.1975414771       -0.1755728818
 C         -1.8493391829       -0.1883004185        0.0243971667
 O         -3.0506652104       -0.2722407501        0.0438821405
 N         -1.0362658960       -1.3089299976        0.1221043297
 C         -1.7007608459       -2.5880796845        0.2834719056
 H          2.6957469270        0.3883024411        1.9353664971
 H          4.0505722597        0.8960239247        0.8822021817
 H          2.5964786880        1.9192232454        1.0313184486
 H          2.6564227610       -0.6207943559       -2.0282221946
 H         -1.4652515199        3.0919634703       -0.1118614653
 H         -2.6299440024        2.1905119934       -1.1211999628
 H         -2.8147946068        2.1705201630        0.6330355648
 H         -1.4683491649       -3.0217012849        1.2587006872
 H         -1.4032049371       -3.2777619594       -0.5082302861
 H         -2.7752450617       -2.4173395129        0.2221002883
 H          0.6933798147       -3.2200165250        0.3341373161
