  72
        -99.29760083
 N         -1.6221779234        2.9712113830        2.5282487610
 C         -1.7400266593        2.1962276552        1.5544032650
 C         -2.9326579233        2.1578100298        0.6427783767
 C         -3.4472786131        0.7296589584        0.5578916431
 C         -4.0971017301        0.2857557190       -0.5348193769
 C         -4.5421429603       -1.0931201262       -0.7673377781
 O         -3.6484476586       -1.7185127875       -1.7095263173
 C         -4.1687789150       -1.8696632921       -3.0084338023
 C         -4.5021348865       -1.9114053003        0.5133369264
 O         -5.1684990355       -3.0622191291        0.3944668235
 C         -5.2447387663       -3.9422958031        1.4982841444
 C         -3.8196880701       -1.4499601869        1.6108964524
 C         -3.2631471579       -0.1720655421        1.6397167974
 C         -2.4438749833        2.6260585867       -0.7535937041
 C         -1.6275448885        1.5976777829       -1.5556424960
 C         -0.3105714269        1.2943777306       -0.9652179404
 N          0.2243005500        0.0933707380       -0.8354553201
 C          1.5916593470       -0.0521860678       -0.3920855597
 C          2.5404347700       -0.3898830297       -1.5588817456
 C          3.9682032051       -0.2973914616       -1.0976080382
 C          4.6488427527        0.9075158502       -1.1656647253
 C          5.9557902871        1.0118522456       -0.7162860488
 C          6.6083016689       -0.0900570937       -0.1824667037
 O          7.8711863033       -0.1050898736        0.2823284116
 C          8.6378384226        1.0759370590        0.2260984680
 C          5.9168383111       -1.3308873527       -0.1050513179
 O          6.6257887022       -2.3478857407        0.4237197172
 C          6.0388629737       -3.6237819925        0.5173121848
 C          4.6098888123       -1.4105738246       -0.5602599758
 C         -0.4483819217       -1.1132380141       -1.2530963693
 C         -4.1156093587        3.0605971850        1.0992991275
 C         -4.6445371442        2.6527111744        2.4720244882
 C         -3.7695639999        4.5474421253        1.1105415093
 H         -5.5637279245       -1.1382073763       -1.1719491899
 H         -5.0401969940       -2.5319442058       -3.0120989936
 H         -3.3731167866       -2.3176816942       -3.6015927982
 H         -4.4470731874       -0.9029281059       -3.4420152957
 H         -5.7075961779       -3.4528922124        2.3592027888
 H         -5.8667319752       -4.7730475674        1.1711913659
 H         -4.2546880154       -4.3135923122        1.7755292061
 H         -3.7183144491       -2.0718092274        2.4877177205
 H         -2.7060493574        0.1452968777        2.5076496207
 H         -3.3275241692        2.8646688286       -1.3451368239
 H         -1.8560859932        3.5359512819       -0.6286550688
 H         -2.2314545194        0.7014979037       -1.7015549649
 H         -1.4528754786        2.0427876488       -2.5434729676
 H         -0.9599420628        1.4771701147        1.2444942539
 H          0.3095628983        2.1323797875       -0.6793033947
 H          1.6433091368       -0.8441060066        0.3603533714
 H          1.9224852613        0.8804821151        0.0696599399
 H          2.3684820595        0.3245241568       -2.3660250485
 H          2.3272622248       -1.3920909032       -1.9311472565
 H          4.1661729397        1.7774196624       -1.5847847493
 H          6.4615095671        1.9603844656       -0.7911071535
 H          8.1882175962        1.8742802175        0.8244027934
 H          8.7680694609        1.4199664019       -0.8043005765
 H          9.6077857292        0.8145090325        0.6445244691
 H          6.8022426539       -4.2646673849        0.9541779822
 H          5.1592715421       -3.6143883087        1.1690281723
 H          5.7616028740       -4.0114241311       -0.4678516831
 H          4.0795794220       -2.3488100136       -0.5132047930
 H         -0.4107612742       -1.2241131367       -2.3389695404
 H         -1.4956185650       -1.1143600675       -0.9511341594
 H          0.0420243787       -1.9710889218       -0.7993599014
 H         -4.9141804319        2.8934292126        0.3659006834
 H         -3.8848894861        2.8178734844        3.2301832382
 H         -4.9428629701        1.6067806612        2.4862436273
 H         -5.5140419154        3.2556030707        2.7199494015
 H         -2.9370175564        4.7315355883        1.7824335842
 H         -3.5209805685        4.9152028542        0.1191789048
 H         -4.6283919475        5.1099437106        1.4673323356
 H         -0.7617283333        2.9295657753        3.0657814747
