  25
        -42.15923656
 C          3.0736668795        1.5733379160        0.0106865485
 N          2.2805784977        0.4288797737       -0.0028794836
 C          2.4063923089       -2.3886806853        0.1912431069
 N          1.2497482066       -2.0764463609       -0.2007342270
 C          0.4562790270       -1.0422569731       -0.0284375072
 C          1.0095876478        0.2959470524       -0.0215092310
 C          0.0409629560        1.4413601014       -0.0263663630
 O          0.4188136812        2.5901383625       -0.0379715458
 N         -1.2846138806        1.0946905518       -0.0041343938
 C         -2.2784138095        2.1613868941        0.0077031218
 C         -1.8052024188       -0.1891622845        0.0137443451
 O         -2.9846284293       -0.3996106213        0.0431443423
 N         -0.8748896284       -1.2371061503       -0.0016689987
 C         -1.3874060112       -2.5924818191        0.0158244349
 H          3.7204193333        1.5387851829        0.8929285502
 H          3.7311330025        1.5406449966       -0.8642573983
 H          2.4955933161        2.5076578682        0.0099423101
 H          2.8506733535       -1.9765246791        1.0927039606
 H         -1.7618747673        3.1166852108        0.0553870280
 H         -2.8862142632        2.1068348217       -0.8955003780
 H         -2.9332018735        2.0384421983        0.8701110426
 H         -1.2211324510       -3.0530638279        0.9904129205
 H         -0.8763665619       -3.1805544999       -0.7467126136
 H         -2.4568306223       -2.5570283376       -0.1845359886
 H          2.9532147496       -3.1542068930       -0.3334517790
