  72
        -99.42276040
 N         -0.8046289744        1.1837821074        0.9664785070
 C         -2.2044959994        1.1803208125        1.2234389470
 C         -3.0731671862        2.1082109827        0.2976922867
 C         -3.9089685762        0.8771832022        0.0309365680
 C         -5.1015431945        0.4526197686       -0.7263157545
 C         -5.3391756192       -1.0114269651       -0.4992975168
 O         -6.4005340916       -1.6262519788       -1.0357834929
 C         -7.3344013287       -0.8976838854       -1.7969356632
 C         -4.4912418435       -1.8332869028        0.2668931903
 O         -4.8850023172       -3.1291968215        0.3217017363
 C         -4.1361233469       -4.0428370301        1.0887841976
 C         -3.3563841832       -1.3252351471        0.9182142904
 C         -3.1238664347        0.0423085264        0.7653339172
 C         -2.2931838060        2.5507128445       -0.9449674023
 C         -1.3586035940        1.4440038595       -1.4203489400
 C         -0.2567281103        1.2168859501       -0.3798181983
 N          0.5578670172        0.0684040380       -0.7009496071
 C          1.9507411283        0.1126467000       -0.3241134292
 C          2.8651751700       -0.4236089286       -1.4424639817
 C          4.2971538128       -0.2850050130       -1.0192457875
 C          4.9914076074        0.8971979983       -1.2364833094
 C          6.2937153878        1.0506683495       -0.7897363008
 C          6.9334389123        0.0227052158       -0.1093214683
 O          8.1879443553        0.0617048933        0.3753041859
 C          8.9624235817        1.2242100655        0.1916831286
 C          6.2325542253       -1.1957775001        0.1151048171
 O          6.9260749121       -2.1424866330        0.7767534934
 C          6.3227788420       -3.3891150569        1.0287488608
 C          4.9290162502       -1.3232915903       -0.3405286452
 C         -0.0422588863       -1.2392213308       -0.5780070671
 C         -3.8042189924        3.2830539348        0.9739638759
 C         -4.7451347856        2.8130656335        2.0845161927
 C         -2.8257546397        4.3105330422        1.5411254392
 H         -4.9624426916        0.6399995755       -1.8040302728
 H         -7.8212804859       -0.1205166830       -1.1998776483
 H         -8.0805004329       -1.6221801161       -2.1173914019
 H         -6.8722379923       -0.4397343792       -2.6762018179
 H         -4.1067968724       -3.7546989810        2.1439982568
 H         -4.6542393180       -4.9948038064        0.9912060363
 H         -3.1154862022       -4.1470790941        0.7067035800
 H         -2.7203875839       -1.9564384145        1.5143791927
 H         -5.9865525396        1.0377244854       -0.4429748302
 H         -2.9992876715        2.8134222778       -1.7344656251
 H         -1.6992420625        3.4328876682       -0.7115066450
 H         -1.9217319752        0.5261495902       -1.5881605775
 H         -0.8856248763        1.7238150070       -2.3611310834
 H         -2.3403931929        1.3852328606        2.2876342875
 H          0.4168880039        2.0876681467       -0.4264924935
 H          2.1373559856       -0.4738525447        0.5888760019
 H          2.2339327153        1.1468658401       -0.1197753977
 H          2.6767642591        0.1513287818       -2.3491809054
 H          2.6294286376       -1.4691654038       -1.6383550269
 H          4.5158606372        1.7090357659       -1.7651117166
 H          6.8070136147        1.9798636008       -0.9760621287
 H          8.5097140165        2.0887662477        0.6868003351
 H          9.1075809753        1.4453963190       -0.8698146605
 H          9.9253971369        1.0087589579        0.6507735454
 H          7.0723068863       -3.9752668706        1.5569499759
 H          5.4346537182       -3.2845552948        1.6600759956
 H          6.0529460252       -3.8991038633        0.0988728807
 H          4.3890028346       -2.2427487589       -0.1772696604
 H          0.2973203375       -1.8747590143       -1.3972746336
 H         -1.1252467321       -1.1663589520       -0.6286515900
 H          0.2300822620       -1.7290055759        0.3667344229
 H         -4.4098833113        3.7658584331        0.1978966340
 H         -4.1870052708        2.4312680442        2.9353008730
 H         -5.4148458066        2.0299634511        1.7394008873
 H         -5.3476615342        3.6490822865        2.4301399327
 H         -2.1025047890        3.8307821786        2.1954211246
 H         -2.2879954059        4.8330666460        0.7555602864
 H         -3.3709349970        5.0529461415        2.1181085300
 H         -0.2670144044        0.6107675265        1.5999412490
