  72
        -99.34758347
 N         -1.8023285932        2.6513084952        2.5583995309
 C         -1.7908769969        1.9836585751        1.5011766669
 C         -2.9166169119        1.9715394932        0.4984765381
 C         -3.5726040334        0.6048180303        0.5014980223
 C         -4.6212213156        0.3361236327       -0.5384816505
 C         -5.0875240974       -1.0800676660       -0.5981398562
 O         -5.9034875836       -1.5040168135       -1.5724722996
 C         -6.3494452351       -0.6115125556       -2.5659879186
 C         -4.7249537499       -2.0160709025        0.3743015914
 O         -5.2604812747       -3.2501169175        0.2230510131
 C         -4.9655689936       -4.2443478480        1.1782630762
 C         -3.8475487633       -1.6385843488        1.3899969214
 C         -3.2745309239       -0.3551683803        1.4138759245
 C         -2.2642865447        2.2351297092       -0.8873370842
 C         -1.4417900237        1.0582236081       -1.4408783125
 C         -0.0664673722        0.9905513790       -0.8769045320
 N          0.5692778642       -0.1214018100       -0.5251863819
 C          1.9737635620        0.0193978533       -0.1502437298
 C          2.8795476726       -0.1744647794       -1.3761423442
 C          4.3259880977       -0.1055413773       -0.9716995224
 C          5.0145261170        1.0961071126       -0.9917291283
 C          6.3422432645        1.1598776010       -0.5971609959
 C          7.0078655866        0.0200840978       -0.1694366233
 O          8.2907205656       -0.0365392406        0.2340219589
 C          9.0650510648        1.1406200970        0.2323049148
 C          6.3084632306       -1.2184487472       -0.1439486646
 O          7.0299487217       -2.2760992019        0.2776980698
 C          6.4300892498       -3.5490239565        0.3128535215
 C          4.9813265078       -1.2565363956       -0.5408435502
 C          0.0811609156       -1.3535152348       -0.5181096486
 C         -3.9965367603        3.0619503945        0.7815975959
 C         -4.7460858680        2.7832447156        2.0826964731
 C         -3.4272327944        4.4777442737        0.8150241413
 H         -5.5006755271        0.9594322852       -0.2973715837
 H         -6.9073798988        0.2253680011       -2.1363697485
 H         -7.0078041838       -1.1927686577       -3.2086373411
 H         -5.5182574702       -0.2235558731       -3.1638492149
 H         -5.3057071444       -3.9568553287        2.1772936162
 H         -5.5110183713       -5.1280755511        0.8530353866
 H         -3.8950898956       -4.4709427723        1.2062626096
 H         -3.5758653451       -2.3383136269        2.1612433634
 H         -2.5668286392       -0.1469878225        2.2007929379
 H         -3.0530830771        2.4830670471       -1.5984863299
 H         -1.6179358409        3.1094893163       -0.8085315065
 H         -1.9717129101        0.1226611876       -1.2684145112
 H         -1.3608409847        1.1982503731       -2.5268942152
 H         -0.9391837865        1.3648922402        1.1757452244
 H          0.5080068658        1.9018693735       -0.8646223879
 H          2.2187973915       -0.7279780174        0.6063297422
 H          2.1424053608        1.0101179484        0.2757503050
 H          2.6594485404        0.6017070877       -2.1109857888
 H          2.6619170573       -1.1447879954       -1.8261692516
 H          4.5223815623        1.9958834046       -1.3281176580
 H          6.8542069566        2.1074616202       -0.6318273781
 H          8.6409140807        1.9003946943        0.8957637389
 H          9.1665149258        1.5512626461       -0.7768127895
 H         10.0452167114        0.8454757886        0.6019878040
 H          7.2070890025       -4.2287239802        0.6572105753
 H          5.5894078446       -3.5769234537        1.0136915553
 H          6.0906378457       -3.8608920139       -0.6797664493
 H          4.4433119769       -2.1915193592       -0.5324654794
 H         -0.9235289742       -1.5574526484       -0.8242552784
 H         -4.2876602764        0.6685468329       -1.5194469090
 H          0.6998426696       -2.1584226109       -0.1796538484
 H         -4.7116777170        3.0157291024       -0.0486829118
 H         -4.0665622578        2.8742308421        2.9236432957
 H         -5.1780115200        1.7851762136        2.0921276158
 H         -5.5479269433        3.5068411277        2.2051948425
 H         -2.6888998106        4.5699003740        1.6050174057
 H         -2.9762553073        4.7564017960       -0.1334812712
 H         -4.2322584457        5.1790573578        1.0190773312
 H         -0.9777288022        2.6060508637        3.1494988974
