72
 energy: -99.610739536654 xtb: 6.6.1 (8d0f1dd)
N           -1.24729121470035        2.80363912496646        2.11880434656188
C           -1.32604190828019        2.22878461081335        1.00884586830854
C           -2.57758848604839        2.11891010023046        0.18790291339029
C           -3.16094165989233        0.71496316033378        0.30607875487088
C           -4.22532004368203        0.32756463780430       -0.51478066879581
C           -4.78966941264006       -0.93255349661840       -0.42534731672711
O           -5.82512341502457       -1.39059116039732       -1.18428896944777
C           -6.43973447826257       -0.51693321268105       -2.09644032849389
C           -4.28652450136862       -1.85720814311735        0.51807008921215
O           -4.90459259663467       -3.07189271698389        0.53472805420815
C           -4.52552548078452       -4.00896771979877        1.50977009239513
C           -3.23913123210063       -1.47056905514888        1.33338596270986
C           -2.68606655404856       -0.19824802474609        1.22885304122138
C           -2.09966224478499        2.38010909268712       -1.27068904334588
C           -1.25348080963601        1.24045820264543       -1.89116752792650
C            0.03130036297430        0.93240141123615       -1.20001027784907
N            0.33607910064087       -0.23171706877390       -0.71984982838265
C            1.64100041001493       -0.33780020002856       -0.05774283339955
C            2.71738796328486       -0.89063125797404       -0.99828475158948
C            4.10769792505425       -0.59830308455467       -0.53211842360354
C            4.62619186243620        0.68551844923007       -0.58318265492270
C            5.93343989497994        0.94065791860825       -0.19067791959225
C            6.74034670025894       -0.08595909011550        0.26803591238414
O            8.03695666355413        0.04179649682542        0.66646947777565
C            8.65475468204655        1.29871349885886        0.57317988942343
C            6.21566073889412       -1.39592838866890        0.34113271846411
O            7.08047115501786       -2.34153586490518        0.80817420928684
C            6.63295935559255       -3.66948055854096        0.91213299225890
C            4.91702816841969       -1.63172703888851       -0.06637488098389
C           -0.24192813537712       -1.49234878779048       -1.12619720992662
C           -3.69110621352847        3.12839012136865        0.62225386602555
C           -4.22807874532624        2.82566715495183        2.02495286930746
C           -3.24734187600736        4.58753799991818        0.55752603753348
H           -4.62071098557658        1.02792537763810       -1.23307541377817
H           -6.84883607653587        0.36697001677039       -1.59617548097542
H           -7.25559531402934       -1.08577906627663       -2.54054254694380
H           -5.75054130860989       -0.20125265680591       -2.88739975123497
H           -4.66552751728697       -3.61663101782480        2.52262105907309
H           -5.18235837000608       -4.86568909816055        1.36173923046566
H           -3.48483649645527       -4.32788846507472        1.38519317310384
H           -2.84212562595110       -2.15428778483256        2.06728466126183
H           -1.88628663117897        0.07567118583218        1.89752634853793
H           -2.97629872034083        2.52205516197234       -1.90805245872088
H           -1.52628722145469        3.30772152159697       -1.28823095535686
H           -1.90372533931854        0.36723562413532       -1.99115069361862
H           -0.95523003903374        1.57592989766948       -2.88911316525258
H           -0.46239386078191        1.79438889210216        0.45646520894320
H            1.52645742427365        0.43185971064550       -2.99143963961883
H            1.52856920736216       -0.97953144410570        0.82592253332990
H            1.93513183984442        0.66324205852842        0.27047722803585
H            2.55688411572956       -0.38941114270663       -1.97264912842312
H            2.57198546525416       -1.96098969548054       -1.14822903456977
H            4.02158655473368        1.49718726140760       -0.95924955521678
H            6.32072944027736        1.94637502841710       -0.25936951595348
H            8.16611201839411        2.03726591689937        1.21466074248153
H            8.67526727606829        1.66877541027401       -0.45769421786475
H            9.67560997282471        1.14833006708167        0.92021634072524
H            7.47517024149541       -4.22825609858397        1.31902838006536
H            5.77550593961789       -3.76002949851402        1.58961960137139
H            6.36581322718614       -4.08450229335879       -0.06583293407878
H            4.50258387027541       -2.62557944989085       -0.03146545163795
H            0.02836384846252       -1.68174729746420       -2.17702678241964
H           -1.32336968204623       -1.45484994493406       -1.01877500684322
H            0.14075378511167       -2.29892066815467       -0.51101396499017
H           -4.52610124669014        3.00660759211918       -0.07671730599251
H           -3.43763804780717        2.94990230509254        2.75494383936040
H           -4.61292160669486        1.81050443632323        2.09228333943807
H           -5.03880586950938        3.51076543136360        2.27145709727897
H           -2.40501543948902        4.74744738824016        1.22143612784936
H           -2.97144468917572        4.87999438327779       -0.45256551974884
H           -4.06402294870701        5.23134485864608        0.88113534020664
H           -0.32403939180187        2.83271225135618        2.54246909528621
