25
 energy: -42.157602584005 gnorm: 0.009889821384 xtb: 6.6.1 (8d0f1dd)
C            5.05093406367539        0.80116665750147       -0.52651748931632
N            3.77623262874532        0.23746551674992       -0.52491335101057
C            3.01848000342058       -0.02752307741827        0.47055779617045
N            1.78679468752970       -0.40390825295925        0.38377969175910
C           -0.49188353935226       -0.65136738590786        0.12705528624289
C            0.80470695419236       -1.18167019918108        0.17323380212702
C           -0.80136954660039        0.77667023040332        0.32029262562172
O           -0.05431676726702        1.69228066245958        0.55365342540459
N           -2.17613719513069        0.85062577021992        0.17164005063714
C           -2.95876311057495        2.05469088059210        0.28296982572660
C           -2.72566280421099       -0.38484355913971       -0.09433742912080
O           -3.87177940394808       -0.66541894328179       -0.28139103644180
N           -1.64898382299200       -1.30183188562716       -0.11217170355097
C           -1.84767654324798       -2.69550856059353       -0.37967341458542
H            5.46925862086216        0.95527078914496        0.47695815141990
H            5.71826294346399        0.15302489741346       -1.10290474537597
H            5.00724760833602        1.76375239388050       -1.04705179306111
H            3.35131622464648        0.17403682138047        1.50428432490904
H           -2.27829144333186        2.90232407579064        0.33352562279266
H           -3.61635850572108        2.14389463852212       -0.58248045057167
H           -3.57489753099498        2.02100885055064        1.18373287190648
H           -1.49514236420805       -3.30407015861469        0.45489516972819
H           -1.32104050947825       -2.99415935174263       -1.28818927856553
H           -2.91797064180082       -2.85223389183789       -0.51539219739226
H            0.95747150812042       -2.24543837669312        0.04961586244994
