  25
        -42.16926269
 C          2.7324907096        1.1727899675       -0.7039979874
 N          1.9592141608        0.0269255489       -0.3085371622
 C          2.3982067628       -1.2204117064       -0.2719892516
 N          1.4070540975       -2.0279574671        0.1291568203
 C          0.2844772568       -1.2698923011        0.3722590190
 C          0.6416812157        0.0458791023        0.0783381686
 C         -0.1013029582        1.3047076630        0.2916981137
 O          0.4642448601        2.2841323243        0.7252761867
 N         -1.4617209072        1.3024237289        0.0236992566
 C         -2.2402951065        2.4162282322        0.5478786022
 C         -2.0478596445        0.4499080924       -0.8767947697
 O         -1.4833341775       -0.4217404427       -1.4844932435
 N         -0.8495253759       -1.7065563376        0.9385109234
 C         -1.5060158148       -2.7591304298        0.6957485297
 H          2.6349591294        1.9571904370        0.0475465001
 H          3.7763368112        0.8884956233       -0.8122651855
 H          2.3652149943        1.5652700092       -1.6533027265
 H          3.3927309914       -1.5390770584       -0.5186097397
 H         -1.6608817128        2.9039200120        1.3281654245
 H         -2.4534097082        3.1445334637       -0.2350985539
 H         -3.1748602661        2.0435101284        0.9622848939
 H         -2.3501973137       -2.9748840330        1.3335423783
 H         -1.2999773871       -3.4386963074       -0.1286622908
 H         -3.1172844069        0.6678327243       -1.0034486960
 H          1.4797271646       -3.0266799224        0.2661743054
