  72
        -99.44132255
 N         -1.3535223903        2.4243396780        1.8217341294
 C         -1.3962454284        1.1355761478        1.0647038282
 C         -2.6116364167        1.2289632828        0.1090238296
 C         -3.6131594434        0.0915872492        0.2081077475
 C         -4.7016006298        0.1262955721       -0.6751709828
 C         -5.6640450723       -0.8655962189       -0.6817952471
 O         -6.7419059140       -0.9047213245       -1.4987278398
 C         -6.9132498559        0.1107414282       -2.4560604017
 C         -5.5537646690       -1.9508019091        0.2254697491
 O         -6.5283621888       -2.8814836092        0.1449334855
 C         -6.4699248608       -3.9975182031        1.0015751428
 C         -4.4850185780       -1.9734919787        1.1027645520
 C         -3.5284499317       -0.9632249680        1.0962774931
 C         -1.9637692743        1.2367322131       -1.2983944386
 C         -0.6825080424        0.4306271920       -1.1333652253
 C         -0.1212193995        0.9395121957        0.2063355196
 N          0.8451229904        0.1465718779        0.9313958170
 C          2.2388833683        0.5057833197        0.7279866024
 C          2.7991698477        0.3364425226       -0.6986683688
 C          4.3012965713        0.3425968139       -0.6517799337
 C          5.0211594622        1.5173911786       -0.7560244141
 C          6.4062869918        1.5122598044       -0.6543076942
 C          7.0943619194        0.3295358896       -0.4420816259
 O          8.4382232034        0.2088973663       -0.3209670679
 C          9.2326422429        1.3667836995       -0.4054955038
 C          6.3653882925       -0.8815644601       -0.3386160113
 O          7.1142423938       -1.9940850815       -0.1388113543
 C          6.4696610658       -3.2414725455       -0.0713040697
 C          4.9861230912       -0.8536460090       -0.4406481995
 C          0.6231852200       -1.2882227054        0.9225024919
 C         -3.2563406044        2.6024678381        0.4551832664
 C         -4.3530029380        2.5102072924        1.5144577343
 C         -2.0653562108        3.4093717158        0.9754037069
 H         -4.7889400744        0.9526483244       -1.3619519274
 H         -7.0327605867        1.0932586265       -1.9872159016
 H         -7.8265946197       -0.1437740763       -2.9899679725
 H         -6.0786389920        0.1420740377       -3.1641739412
 H         -6.5271810644       -3.7004757526        2.0534823577
 H         -7.3381729014       -4.6036250887        0.7513512729
 H         -5.5599740690       -4.5829462429        0.8362534371
 H         -4.3738705574       -2.7806114907        1.8076327827
 H         -2.7284085544       -1.0566609914        1.8136466466
 H         -2.6181029053        0.7960145127       -2.0451616122
 H         -1.7284046536        2.2553318025       -1.6118580391
 H         -0.9261778760       -0.6274862026       -1.0611720862
 H          0.0144990742        0.5760566842       -1.9548490088
 H         -1.4601934877        0.3200292999        1.7806400513
 H          0.3379750878        1.9199375995        0.0309792108
 H          2.8238873123       -0.1175490530        1.4073032901
 H          2.3746154346        1.5459128527        1.0422218590
 H          2.4389481094        1.1436540885       -1.3391645515
 H          2.4519640914       -0.6113781310       -1.1118365634
 H          4.5104422507        2.4537377823       -0.9261079520
 H          6.9402878062        2.4440751896       -0.7454766464
 H          8.9782070852        2.0876044212        0.3782894380
 H          9.1423686991        1.8465795965       -1.3852719244
 H         10.2575188526        1.0287459029       -0.2638683233
 H          7.2627443407       -3.9740094482        0.0664549444
 H          5.7794051142       -3.2942819568        0.7775830240
 H          5.9279597712       -3.4653654056       -0.9961699530
 H          4.4196937139       -1.7688407193       -0.3640374244
 H          0.9227501806       -1.7722276365       -0.0131729129
 H         -0.4282087655       -1.5069133948        1.0943926112
 H          1.2028580827       -1.7248983277        1.7345260471
 H         -3.6745210639        3.0631910527       -0.4397038033
 H         -4.0270569179        1.9578924187        2.3933554248
 H         -5.2201359014        1.9931516902        1.1163429915
 H         -4.6656848368        3.5067368759        1.8176311041
 H         -2.3559615072        4.2911306431        1.5460198421
 H         -0.3839931825        2.6904833074        2.0087478338
 H         -1.4068076544        3.7113987599        0.1606374400
 H         -1.8584227462        2.3256098700        2.7079665396
