  25
        -42.13183693
 C          3.2518365707        1.1233523325        0.0161866973
 N          2.2673833827        0.0791605489       -0.0008688984
 C          2.4847820225       -1.2584953779       -0.0067245521
 N          1.3742644949       -1.9609093801       -0.0067627044
 C          0.3731532176       -1.0565899946        0.0001778706
 C          0.9147845268        0.2392558735        0.0046764785
 C          0.0784707530        1.4151897422       -0.0023053870
 O          0.4666120914        2.5615935532       -0.0126861470
 N         -1.2754254125        1.0804687246        0.0006807222
 C         -2.2370155476        2.1685961314       -0.0022029902
 C         -1.8323515814       -0.1931675057        0.0036766856
 O         -3.0242654280       -0.3565780037        0.0069835448
 N         -0.9536934029       -1.2815959153        0.0014419291
 C         -1.4808428977       -2.6245933753       -0.0008148386
 H          3.7634026632        1.1462860216        0.9810905274
 H          3.9933735675        0.9552819577       -0.7654484146
 H          2.7580008826        2.0813756680       -0.1438745808
 H          3.4644954475       -1.6935671220       -0.0118392858
 H         -1.6910180470        3.1098750393        0.0045098164
 H         -2.8704459822        2.1040568056       -0.8886382945
 H         -2.8824748588        2.0970908406        0.8748684890
 H         -1.1258158337       -3.1604866848        0.8808795152
 H         -1.1410490070       -3.1521303941       -0.8936192416
 H         -2.5683409225       -2.5699481852        0.0082907956
 H          0.7658705872       -4.7526650647       -0.0301222506
