72
 energy: -99.240069196210 gnorm: 0.002301123581 xtb: 6.6.1 (8d0f1dd)
N           -1.81613956258095        2.77531945006139        2.14163733984654
C           -1.88451691023718        2.07471872782792        1.11304417746176
C           -3.09568699325646        1.91285402399602        0.24071165682684
C           -3.59314079507655        0.48004704241730        0.33700063968613
C           -4.52184917371789       -0.00147404330514       -0.58653761806974
C           -5.00270411369658       -1.29855604481216       -0.51999378754313
O           -5.89604773189846       -1.84376720257544       -1.37371927485488
C           -6.49282323485491       -1.03154429991393       -2.35716150435804
C           -4.54368771151299       -2.16356779797510        0.50887945543417
O           -5.05083993354972       -3.41418682138449        0.48668402709251
C           -4.69294516175762       -4.31510384543446        1.50847717001421
C           -3.63751814784949       -1.67304277175646        1.43497493655786
C           -3.16978790143271       -0.36801868346201        1.34854610591331
C           -2.59499294932978        2.21801435983285       -1.19626808653642
C           -1.69443960826678        1.12942343725465       -1.79920345781668
C           -0.37706015240963        1.03006115039201       -1.08444983490364
N            0.32957736278442       -0.21717631036998       -1.17344232260738
C            1.76482097749799       -0.21306196778063       -0.93289764291162
C            1.26586514576024       -0.48778891340011       -2.29486227674707
C            4.79294561963634        0.07332252553861       -0.49989424781196
C            5.40231193940168        1.26902633854674       -0.75338395196605
C            6.74703665440499        1.40269514010654       -0.40311982105681
C            7.43181993068529        0.34716111760659        0.18144364600283
O            8.72747018063062        0.37250807004221        0.56362037227206
C            9.47220842898223        1.55406310641759        0.38367117867079
C            6.76433969492905       -0.88547301718801        0.42095788782039
O            7.51087148929465       -1.85469904618640        0.98695142299403
C            6.93096497030970       -3.11028890669099        1.24475571790496
C            5.41961490304242       -1.00424067102469        0.06686053455491
C           -0.42105703452329       -1.37485131999670       -0.68884928662026
C           -4.27112178653874        2.86340714827581        0.61496749803779
C           -4.82324880273086        2.54932935202581        2.00299302585598
C           -3.89574434611552        4.34002062593028        0.53397766703011
H           -4.88019308951925        0.65285823605205       -1.36378801341974
H           -7.01994787437685       -0.18309413178138       -1.91082150477307
H           -7.20916768521810       -1.67171331146513       -2.86835297088766
H           -5.75634920325444       -0.66613965088108       -3.08052676046131
H           -5.01631932401691       -3.95635440792763        2.48991010299618
H           -5.21143434224093       -5.24258891108742        1.27503343409634
H           -3.61387620634239       -4.49791243710812        1.52399694724573
H           -3.29603950053995       -2.29651922231419        2.24523977852471
H           -2.48850600945216       -0.01029183142248        2.10561180693179
H           -3.45555980210800        2.35716254220487       -1.84990873292737
H           -2.04026068108880        3.15670255824485       -1.17653451402414
H           -2.22643409252395        0.17885827160353       -1.76878293538729
H           -1.54393541384836        1.38799040008886       -2.85847660872215
H           -1.01809108913108        1.52742326539572        0.64222316011200
H            0.28598089770558        1.86888646493762       -1.26204110408339
H            2.16499576318309       -1.01978212338911       -0.33654144362673
H            2.22067426782000        0.74433423736941       -0.72101840362958
H            1.33285752332795        0.28695358697934       -3.04419808150875
H            1.28383756618399       -1.49562133468934       -2.68126094446696
H            4.88599281737386        2.09889494771050       -1.20974659163393
H            7.24263729366544        2.34034822694673       -0.59744241951656
H            9.03551773735159        2.39139223459081        0.93688862784796
H            9.55580530287269        1.81825261845959       -0.67504763936531
H           10.46237796992408        1.33746842732871        0.78021543357640
H            7.72121078893668       -3.71294838410022        1.68863505195818
H            6.09846340900423       -3.03000100852281        1.95163860849951
H            6.58571666553658       -3.58921989096126        0.32279894293112
H            4.89524985235274       -1.93135931931419        0.23954767935913
H           -1.17348505739025       -1.66840361387902       -1.41820380558405
H           -0.92493966644564       -1.11946865593547        0.24297185761956
H            0.24763874404458       -2.21573376270227       -0.52390342179194
H           -5.06491185007059        2.67221558076908       -0.11661153044040
H           -4.06255607749940        2.73144926801127        2.75570694783753
H           -5.14969409484217        1.51462675738629        2.07278907506996
H           -5.67525417021868        3.19154914545024        2.21025048933797
H           -3.08382648146691        4.56057836442952        1.22052265417605
H           -3.60354130924732        4.63020270183244       -0.47151880160112
H           -4.75432154538979        4.94295628395543        0.81828487446239
H           -0.92829168205397        2.84505744721682        2.62735425170452
