25
 energy: -42.168321752632 gnorm: 0.003096051191 xtb: 6.6.1 (8d0f1dd)
C            3.92479645522934        2.86159365997817        0.20343859720499
N            2.20682539251922       -0.64814128471336       -0.11114898718786
C            2.26280245492302       -1.94635605846391       -0.15557517797755
N            1.01672205879974       -2.51641578293592       -0.14984335125367
C            0.12857001360269       -1.49096153648451       -0.09564732707080
C            0.89287694928034       -0.31642074798205       -0.07336266297543
C            0.25785060007088        0.97700039784903       -0.01576121013876
O            0.81356988213325        2.05458880208615       -0.00367510129573
N           -1.13816243580088        0.86997097442871        0.02831636653822
C           -1.90637412944122        2.10155520765869        0.09616592251243
C           -1.89982364280365       -0.28681728037800        0.02164625308412
O           -3.10314084144747       -0.25371974737448        0.07922700698387
N           -1.21765512810649       -1.50896094816220       -0.05808465941463
C           -1.97991114954668       -2.73924129946097       -0.07533090994079
H            4.30802817183800        3.03247228675757        1.19196045697039
H            4.59674822546071        2.85297679412230       -0.63158148496304
H            2.86956585940884        2.70289282490902        0.05178691440662
H            3.16908297882008       -2.51698149149411       -0.19225232718943
H           -1.21456768285563        2.94002141437304        0.03660174082402
H           -2.62165163262841        2.13851910147315       -0.72705447346348
H           -2.46674197474755        2.14220247189261        1.03219347825852
H           -1.71076177536751       -3.36691131529958        0.77593657209999
H           -1.80601700364447       -3.28276708176517       -1.00562454979144
H           -3.03615423000785       -2.47772422757410       -0.00690887437398
H            0.81395409841085       -3.50413659184256       -0.18425059394534
