25
 energy: -42.158760244055 gnorm: 0.002511962809 xtb: 6.6.1 (8d0f1dd)
C            3.08444162990475        1.13946700891540       -0.26806450470265
N            2.14070484899829        0.07154408425061       -0.09492065116247
C            2.42932210096551       -1.19081531332373        0.13729869012056
N            1.31077398419964       -1.91825618826226        0.24886757087166
C            0.18405775470841       -1.08755123264120        0.08170278088900
C            0.75237580291013        0.21449810411866       -0.15450845860764
C            0.14138294148965        1.44358578202436       -0.38045512261601
O            0.56401275384018        2.55638395140485       -0.52088107966715
N           -1.42232200537731        1.29477730216825       -0.45071959999142
C           -2.12898401567692        1.73334160111901        0.74173884626198
C           -1.90654587287785        0.94310869150862       -1.53546077336111
O           -2.20191013862601        0.60589600346454       -2.58926613778241
N           -1.04779960070973       -1.39124591997067        0.14799484676753
C           -1.52217699323084       -2.71297401215841        0.41451168593455
H            2.97409516739959        1.87244552633484        0.53240386508497
H            4.09527757682542        0.73829607548586       -0.25829598460577
H            2.90173917780965        1.65157125810509       -1.21293735235325
H            3.42526530569701       -1.58390321309425        0.22254333992398
H           -1.76718294192004        2.72548919987374        1.01330737116388
H           -3.19957269706902        1.76997024701328        0.55738860554385
H           -1.91802106944323        1.02852441205012        1.54476195704172
H           -0.97366543331952       -3.21129195049446        1.21942330199754
H           -1.46094257121240       -3.33113301341243       -0.48561734880128
H           -2.56949926442075       -2.63253839279347        0.70062556451807
H            1.27560507324177       -2.91095147008164        0.41973020543664
