72
 energy: 71.558425945969 xtb: 6.6.1 (8d0f1dd)
N           -1.70266193384101        3.05037276923060        2.23589484533595
C           -1.69120103546033        2.29518320254749        1.23940957520751
C           -2.86401488246103        2.12223075305555        0.31169790287637
C           -3.34736404949256        0.68014290656411        0.37193529077622
C           -4.26001261756497        0.20863311996839       -0.57638665245657
C           -4.75923054087365       -1.07916221407765       -0.51733076835993
O           -5.64987127410026       -1.61659110460644       -1.39387281194410
C           -6.19230327745510       -0.80107760355126       -2.40256358964851
C           -4.34490134302126       -1.94344571590302        0.52400288188062
O           -4.89924076635492       -3.18393025331875        0.50883727930306
C           -4.61712818126700       -4.06269306559269        1.56982562438124
C           -3.44097944288194       -1.47483871362799        1.45917597836333
C           -2.95101325606811       -0.17543360815092        1.38320691538697
C           -2.33037802380144        2.45751926957975       -1.10474228587541
C           -1.41895371265855        1.37880881592061       -1.71687936120020
C           -0.06284277023920        1.34079842008233       -1.12704920902257
N            0.60769499487754        0.24144246588781       -0.79155054349793
C            1.99474508537019        0.30865594927749       -0.39521483821415
C            2.94364236387522       -0.08493370898064       -1.54326121121243
C            4.35988178806863       -0.08896685264375       -1.04573357623941
C            5.19530413517693        1.00581451579049       -1.24532376904658
C            6.49843394350761        0.99959257785568       -0.76708595749035
C            6.99656557948409       -0.07479940767825       -0.06758298186224
O            8.25914812553865       -0.15613687012973        0.43242462522127
C            9.14606129999942        0.91457576275966        0.24500470544080
C            6.15180293410507       -1.25123824412250        0.16783823508017
O            6.52119483101778       -2.27238288184120        0.77415702547256
C            6.88241531006383       -5.53651566463885        1.95616840872125
C            4.82899944189707       -1.17567866790157       -0.36242931352714
C            0.01472426461387       -1.06671821009567       -0.90726469127902
C           -4.07127745044678        3.04656566170157        0.64972002961378
C           -4.66499133360568        2.71665556007335        2.01814690967177
C           -3.72815248787934        4.53458752258262        0.58171402635352
H           -4.59267911768111        0.86691274547033       -1.36326741115611
H           -6.71647960308974        0.06581196887329       -1.98628731708120
H           -6.90844487711819       -1.42904985582845       -2.93001174044872
H           -5.42506678821266       -0.46234767678387       -3.10720273525700
H           -4.91953944446853       -3.64153551695332        2.53401870074339
H           -5.20517551081830       -4.95642278333029        1.36839644278648
H           -3.55598044667652       -4.33040434106874        1.60402539998269
H           -3.11527066851382       -2.10573281484300        2.27077636678446
H           -2.27211735039175        0.16423541601534        2.15064895128363
H           -3.18279441192021        2.59828213103218       -1.76945267154648
H           -1.78830048335310        3.40356129612338       -1.06263305338601
H           -1.91090041336230        0.40870174142061       -1.66779225519112
H           -1.30081591007324        1.63920136727881       -2.77925000440019
H           -0.80942610598639        1.71345129522506        0.90868784811440
H            0.47636363811759        2.26787898236046       -1.04144005776932
H            2.16315732425923       -0.37583961884567        0.44224246289959
H            2.23562603693833        1.32216522664447       -0.06257160699202
H            2.84531700988069        0.64403511538179       -2.35091582814765
H            2.67393404096319       -1.07783657133703       -1.92056477649532
H            4.84615015467537        1.87126966796474       -1.78402224538914
H            7.11735671955242        1.86401147263351       -0.95500217733254
H            8.76786427046142        1.83976589128419        0.69299194332218
H            9.35712398332491        1.08823465055371       -0.81708160452565
H           10.06907318928299        0.62766915817125        0.74777465778827
H            7.82587835859009       -5.07854207193151        2.13344531886696
H            6.20770460713951       -5.63054651042728        2.76632692181512
H            6.77209127118949       -6.17943112530582        1.12119781058049
H            4.20310195913909       -2.04581984007700       -0.20886835230685
H           -0.19226441882878       -1.31896119376132       -1.94908643560740
H           -0.91751848532150       -1.11693912357405       -0.33987415202466
H            0.70026874770143       -1.80899533992977       -0.50535904059142
H           -4.84036124626539        2.83900848748920       -0.10461579525599
H           -3.93927807789863        2.91959007948614        2.79827564663470
H           -4.96577603137296        1.67300252575728        2.07412156725270
H           -5.54325472732356        3.33254161268948        2.19498637960607
H           -2.92695357731045        4.76440546787835        1.27649834804653
H           -3.43791854684552        4.84046688725463       -0.42035246363406
H           -4.60240105687307        5.11593209376048        0.86495873282524
H           -0.84143069176342        3.10893188803480        2.77304533386940
