72
 energy: 65.670168230277 xtb: 6.6.1 (8d0f1dd)
N           -1.63820347820186        2.95716964202446        2.26209948117114
C           -1.65015365825591        2.25546999806654        1.22646330318904
C           -2.81547825473084        2.09951204247470        0.28709055852662
C           -3.33915657997696        0.67183564190893        0.35666297632130
C           -4.27922417555418        0.22462859859727       -0.57507610109107
C           -4.79700826501169       -1.05605595491508       -0.52177324300110
O           -5.72356450221553       -1.56616846118734       -1.38309148837153
C           -6.28385400747530       -0.71650977764292       -2.35315343280825
C           -4.36894655497757       -1.94388335889339        0.49200708093257
O           -4.94182498586891       -3.17922743934893        0.46795365424228
C           -4.63696896532144       -4.08112458612291        1.49871659024298
C           -3.43271392060136       -1.50352862214656        1.40596268849364
C           -2.92594100594095       -0.21076543421971        1.33669743462586
C           -2.27937984136375        2.39244496226392       -1.14229696644141
C           -1.34871167832041        1.31624319919509       -1.72618158997709
C           -0.03135404377752        1.29142689953460       -1.04893924433223
N            0.60897784255518        0.14526189209597       -0.70670550273884
C            2.00080058095462        0.15772654791121       -0.30106682069739
C            2.95202616491531       -0.29024736127615       -1.43066731351276
C            4.38002800300481       -0.25728375381961       -0.96581166252403
C            5.16756831429152        0.86113019578755       -1.16391247287217
C            6.48169423547947        0.85594631690031       -0.70379239622902
C            7.00158339388105       -0.23860791615451       -0.03651762122406
O            8.27892198761488       -0.22860783131469        0.46209710812738
C            9.10499023801898        0.89522660219675        0.26774072523842
C            6.19468907235764       -1.44382985129554        0.22585365601782
O            6.62418259440878       -2.46948965119018        0.91671058378344
C            6.62652121880675       -4.62323910424301        1.56359888074989
C            4.89235497055266       -1.34955753501098       -0.28480408139345
C           -0.01144989891238       -1.16650031934123       -0.79230229425433
C           -3.98838192780570        3.06213106027795        0.61611909503135
C           -4.59496804026963        2.74605857222903        1.98150175330264
C           -3.58027600205874        4.53273874059309        0.56637935317334
H           -4.61997041164518        0.90118127027997       -1.34187248851007
H           -6.77436071071966        0.15306503277978       -1.90250463104598
H           -7.02874447432139       -1.31739818199426       -2.87345579747780
H           -5.53293681407229       -0.37377765281405       -3.07383500562084
H           -4.90005163741218       -3.67502841281940        2.48013835366739
H           -5.24223625079208       -4.96505241256003        1.29895283053062
H           -3.57807871271106       -4.35999042980756        1.49104027450789
H           -3.09115225558623       -2.15505276312841        2.19428962424085
H           -2.21450796653649        0.10802600247154        2.08258443454396
H           -3.12170273897437        2.50513251723683       -1.82470772129759
H           -1.73609203094978        3.33737437590315       -1.11568530955244
H           -1.83833490802776        0.34860874293664       -1.66160422208056
H           -1.20964734467087        1.53429394551124       -2.79757512350077
H           -0.77173191260850        1.69041743584841        0.84082410678192
H            0.59048448252262        2.17302108467965       -1.06938098212445
H            2.17027387905440       -0.50054486778036        0.56207880832899
H            2.25104509030334        1.17335304393424        0.00345675172577
H            2.81238694606758        0.39103626419049       -2.27204858314849
H            2.68125931802213       -1.30267772632370       -1.74182639628340
H            4.77279686499434        1.72251530023574       -1.68730159590370
H            7.09198513834520        1.73439724538396       -0.87327637017336
H            8.70944312085258        1.81012578009905        0.73359078541859
H            9.28903799058249        1.09911741399965       -0.79417670543548
H           10.05237946948789        0.64222948297990        0.74556096206495
H            7.63441439876068       -4.62901376544757        1.92985212191794
H            5.86634039325903       -4.65987541737901        2.31086761014672
H            6.43597688008231       -5.22461926919231        0.70874556955491
H            4.26555124099558       -2.21731010152180       -0.12827997384687
H           -0.20659269955060       -1.46240594375163       -1.82833661885629
H           -0.95974651285569       -1.17867979335195       -0.24602834141511
H            0.63842520401655       -1.92513376227742       -0.35220060353584
H           -4.76036721154611        2.89954435611533       -0.14566242450014
H           -3.86134873774584        2.91321931008568        2.76042364524163
H           -4.92776043952063        1.71169722966704        2.03006746061208
H           -5.44780414074959        3.39510347790532        2.16554827051920
H           -2.78141636015324        4.71753062661063        1.27489026825693
H           -3.25780417356341        4.82491337267440       -0.42869358565173
H           -4.43149140015042        5.15293772423540        0.83841345255217
H           -0.75686608904828        2.98537918806578        2.75946336697908
