72
 energy: 33.186457445552 xtb: 6.6.1 (8d0f1dd)
N           -1.59495290039103        2.91604204768319        2.25544251739195
C           -1.62030458184847        2.21678008616589        1.21205190872340
C           -2.79424561228984        2.08864372103693        0.27709966872583
C           -3.33201404398735        0.66684038480365        0.34769842419688
C           -4.28717259863986        0.23125579205842       -0.57287967164647
C           -4.81176587216270       -1.04631262496134       -0.52376251330747
O           -5.75211288167228       -1.54686665842874       -1.37980855752692
C           -6.31457102104297       -0.68707573483405       -2.33800661063078
C           -4.37667371673411       -1.94202225678949        0.47725203410298
O           -4.95748759610564       -3.17864251946661        0.45155385693746
C           -4.64440515761032       -4.08645220336889        1.47298154189268
C           -3.43048559387079       -1.51347505518091        1.38613179459235
C           -2.91575132458625       -0.22397147322422        1.31950506643500
C           -2.25645312798138        2.36643744247883       -1.15466805485345
C           -1.32015803694816        1.28058836317749       -1.71323822318439
C           -0.03163448479871        1.26449787903925       -0.97794695264986
N            0.62961849739799        0.08229810332733       -0.67047756250841
C            2.00215823711564        0.10095493555158       -0.26359038815749
C            2.95577177135328       -0.36362866451454       -1.38853652046511
C            4.37878896154644       -0.31719061548061       -0.93163581905754
C            5.14849159797156        0.81302770115971       -1.12615349977351
C            6.45990447272252        0.82065199563865       -0.66689022981533
C            7.00350487386534       -0.28575967226740        0.00371779290294
O            8.28435249889296       -0.23575901400639        0.48110503374268
C            9.09260884080154        0.90365550777491        0.27975239191671
C            6.20685301800515       -1.49756996864493        0.24489194152838
O            6.72195694942254       -2.65557411291404        0.98699134181307
C            6.52640057702044       -4.18274388668185        1.39233658349344
C            4.91909926292517       -1.41211065222601       -0.24796487124738
C           -0.01866835633461       -1.20540022371397       -0.74651115753469
C           -3.95522530902171        3.06544867107658        0.60698086910400
C           -4.56841325915140        2.75435958331381        1.97082132518249
C           -3.52966261195284        4.53168457485433        0.56238503801401
H           -4.62990702760853        0.91349286475292       -1.33405073596274
H           -6.79429986194439        0.18256279413564       -1.87585104890535
H           -7.06875652108161       -1.28057176829550       -2.85346173894617
H           -5.56911107928862       -0.34424092526411       -3.06431324472076
H           -4.89516171052326       -3.68589519006161        2.46039401119056
H           -5.25549720370183       -4.96664462860658        1.27450453089475
H           -3.58649435251201       -4.36997303768540        1.45319451458772
H           -3.08569298910051       -2.17222951616870        2.16764615183395
H           -2.19550002226856        0.08571678239804        2.06055343916813
H           -3.09633668922804        2.47336003876081       -1.84216588900229
H           -1.71149645007527        3.31148281318867       -1.13775572497557
H           -1.82241930679862        0.31778917022708       -1.65203825250841
H           -1.15381628177510        1.48878804427475       -2.78371114346255
H           -0.74692940720488        1.67558530557247        0.78469900169241
H            0.61268371105753        2.12338429836414       -1.04422039654896
H            2.16187339068824       -0.54877060888703        0.60869784367958
H            2.26126655916695        1.11890525320523        0.03132713637650
H            2.80145711060803        0.30152919560475       -2.24048228189118
H            2.68088410898877       -1.37915392610704       -1.68072229664606
H            4.73497340933186        1.66984087211865       -1.64853954812793
H            7.04487783758381        1.72220754558581       -0.84501341837356
H            8.68985415559132        1.80866251666551        0.75555540996898
H            9.26206202403824        1.11047158893320       -0.78285534441724
H           10.04737488634118        0.65750132945700        0.74766097096395
H            7.47687846075081       -4.48030280161332        1.84434272996439
H            5.74619782287695       -4.31773045115685        2.15036457312986
H            6.31354341020220       -4.87871265796221        0.57536796969532
H            4.29257430248163       -2.27567190747632       -0.09191419831701
H           -0.21267011757666       -1.51028875227479       -1.78242479195274
H           -0.97299409947619       -1.19453800565391       -0.20840549307096
H            0.61746632920403       -1.96438070025025       -0.28954087807167
H           -4.72881051489153        2.91665144105316       -0.15650375782630
H           -3.83270682202577        2.90988319457415        2.75061774394802
H           -4.91321644295913        1.72366002931953        2.01605090585756
H           -5.41403165944212        3.41332910486781        2.15511707058361
H           -2.73155595907606        4.70590137541745        1.27488286359030
H           -3.19788667065925        4.82177588955970       -0.43053458313299
H           -4.37493021578453        5.16234400324740        0.83069562246634
H           -0.70948283052199        2.92359314405144        2.74598203006451
