72
 energy: 48.527752213299 xtb: 6.6.1 (8d0f1dd)
N           -1.60935505942437        2.92999946969343        2.25751306361443
C           -1.62980028812030        2.22958640855529        1.21678417170777
C           -2.80132247389256        2.09243329738804        0.28042496125462
C           -3.33437910562093        0.66875152630832        0.35055615959523
C           -4.28460154847315        0.22892344002192       -0.57342913442073
C           -4.80687340921254       -1.04966278103328       -0.52290895006405
O           -5.74283108944254       -1.55390504713527       -1.38099722730061
C           -6.30430322579908       -0.69713455276382       -2.34293128440574
C           -4.37379006910151       -1.94247669344148        0.48224650285251
O           -4.95232865508233       -3.17909825796817        0.45739384937828
C           -4.64186553260326       -4.08472211470121        1.48201097122263
C           -3.43109556440631       -1.50997155334110        1.39279641715499
C           -2.91920377683913       -0.21939503137402        1.32513945086120
C           -2.26487786595378        2.37508687316117       -1.15091887671968
C           -1.32992319089932        1.29302771960037       -1.71749975507955
C           -0.03288956278960        1.27700951038606       -0.99872717995096
N            0.62325455996108        0.10264868202599       -0.68161625548147
C            2.00284476555006        0.11922076068131       -0.27615586510716
C            2.95494464649518       -0.33988625616753       -1.40143637555595
C            4.38116879010035       -0.29876401422850       -0.94228072525437
C            5.15491445550276        0.82679813064308       -1.13844339464805
C            6.46794112690855        0.82798575097386       -0.67927517926548
C            7.00314411401474       -0.27462269906370       -0.00827203474330
O            8.28288320661227       -0.23543290682661        0.47590490479578
C            9.09716687812032        0.89976734229487        0.27589218601965
C            6.20419101269214       -1.48582708009107        0.24578799520691
O            6.70564294599128       -2.59288136462840        0.96821134770011
C            6.55646203626097       -4.31451300124369        1.44317276196239
C            4.91479601250332       -1.39347417873317       -0.25858199326380
C           -0.01584222730306       -1.19218804404067       -0.76161880538578
C           -3.96626300258090        3.06427191851927        0.60993041813601
C           -4.57731339452361        2.75160617990396        1.97424107784510
C           -3.54644313886539        4.53204216568106        0.56338324409711
H           -4.62663574375895        0.90907540000319       -1.33676859845177
H           -6.78747551263761        0.17255127976055       -1.88447909801279
H           -7.05550034017684       -1.29289832240405       -2.86014267905711
H           -5.55690825187490       -0.35430351485632       -3.06726111462996
H           -4.89672718295734       -3.68222520735476        2.46738562562036
H           -5.25102713480513       -4.96619922620385        1.28319125002067
H           -3.58363146059343       -4.36670666028524        1.46623788944856
H           -3.08729857468545       -2.16637390627613        2.17658842935247
H           -2.20169765480029        0.09342681818090        2.06757338885252
H           -3.10565618707642        2.48387557270126       -1.83659637847142
H           -1.72042941664856        3.32009032975464       -1.13094147584945
H           -1.82694499074949        0.32817174204052       -1.65483157048446
H           -1.17356478968824        1.50376088542325       -2.78858896838024
H           -0.75536096086641        1.68056959499431        0.80319199023306
H            0.60641493930765        2.14063352903940       -1.05431399324615
H            2.16527406867995       -0.53312893416537        0.59380762715784
H            2.25816296518092        1.13653894364771        0.02278331762374
H            2.80511717481000        0.33066590384716       -2.25025947902646
H            2.68099973097820       -1.35418860258872       -1.70089693713176
H            4.74697135438348        1.68720988040244       -1.65816565203935
H            7.05968026536644        1.72452469388547       -0.85242987364548
H            8.69713032799320        1.80811663250148        0.74884093420547
H            9.27227998425413        1.10680084754727       -0.78616657036839
H           10.04956464408839        0.65153276281939        0.74728910286151
H            7.53031337606757       -4.52609511147933        1.87230192843973
H            5.78611071917447       -4.42654018534961        2.20008206843343
H            6.35407219493474       -4.98488540715669        0.61755517063523
H            4.28382995995733       -2.25650947317570       -0.10459681009183
H           -0.21028489402417       -1.49403720951594       -1.79787789689061
H           -0.96837768901129       -1.18919947970602       -0.22063437654158
H            0.62500473434101       -1.95115458081716       -0.31031314379796
H           -4.73939203110949        2.91094810573923       -0.15299614362592
H           -3.84214661431850        2.91082722889413        2.75355933495168
H           -4.91815595904175        1.71966667186587        2.02043856281887
H           -5.42532835527916        3.40728405489536        2.15860676715620
H           -2.74791941354428        4.70937919598942        1.27440614737916
H           -3.21774703873159        4.82253625778444       -0.43033229122290
H           -4.39352620354995        5.15952000243910        0.83295761239260
H           -0.72451116657829        2.94466252864475        2.74842570598442
