72
 energy: 72.833510155722 xtb: 6.6.1 (8d0f1dd)
N           -1.68166338654318        3.04662781129468        2.22838223812135
C           -1.68884095896327        2.28902063835777        1.23355942367491
C           -2.85630544776233        2.11538858942465        0.30338118610931
C           -3.34785433982254        0.67743720452799        0.36865146569789
C           -4.26469136914081        0.21126516083216       -0.57755214433550
C           -4.77111143149368       -1.07217955036466       -0.51627050470488
O           -5.67026531140784       -1.59967903854565       -1.38941698910219
C           -6.22276766888042       -0.77281152544705       -2.38507361727180
C           -4.35381873081134       -1.94285253762396        0.51873405023120
O           -4.91228042681960       -3.17929588835899        0.49685261619149
C           -4.62402111544195       -4.06919284293355        1.54684424805044
C           -3.43827479229894       -1.48293941036717        1.44399241213736
C           -2.94374428636384       -0.18522543785626        1.36971751414383
C           -2.31863442459941        2.43960201255307       -1.11279713904646
C           -1.40298337610881        1.36427138133459       -1.71600202238153
C           -0.04298397172186        1.31445476087592       -1.13428354526264
N            0.60644589362715        0.21581435900073       -0.77948929650516
C            1.99859060539353        0.26114132092571       -0.36907353091908
C            2.94669395163807       -0.14884293241455       -1.51115091667445
C            4.36592182153977       -0.13934650544391       -1.01796331513597
C            5.19740280885426        0.95613345201799       -1.22130946595502
C            6.50243408955315        0.94778512978108       -0.75015545295105
C            6.99673894827765       -0.13244283654251       -0.05349330485529
O            8.26543448929093       -0.18638768055760        0.44084754957052
C            9.13591632029042        0.89723859361866        0.24599106614705
C            6.15177545466007       -1.31610724041834        0.18975403784164
O            6.47599444435517       -2.35964196314224        0.79494138108704
C            6.82937947561971       -5.25197172726680        1.83815414863184
C            4.83544635726626       -1.22828184153319       -0.34014492667987
C            0.00555713697560       -1.09946895356093       -0.87626032082274
C           -4.04921397611040        3.05436406679587        0.63621425461410
C           -4.64429057872116        2.72790837511258        2.00427018505212
C           -3.67899576285584        4.53358949822003        0.57667360067510
H           -4.59998611464683        0.87603679085338       -1.35741286710390
H           -6.73553468274518        0.09546765686894       -1.95739380958939
H           -6.94845619905430       -1.39042891969653       -2.91250991573276
H           -5.46102295346091       -0.43148798980141       -3.09437783902446
H           -4.91233412112759       -3.65277900693832        2.51672257480688
H           -5.21721217017630       -4.96029231592514        1.34568337032188
H           -3.56336357947315       -4.33934434555082        1.56581591038295
H           -3.10567727436781       -2.12145383145356        2.24572336204737
H           -2.25258865120713        0.14884293712063        2.12799275706568
H           -3.16496936068390        2.56708270606730       -1.78733086577717
H           -1.77702975336639        3.38580963763021       -1.07318726827705
H           -1.89129935888599        0.39347772981324       -1.66947836316417
H           -1.28578093121065        1.62894384700428       -2.77188470267958
H           -0.81593262070234        1.69325264242864        0.90743760357877
H            0.50805412827844        2.24026717385583       -1.06760426493013
H            2.16975312810621       -0.41751752361302        0.47477073486194
H            2.23777051433692        1.27541271751763       -0.04532769521264
H            2.83994033329754        0.56678871789163       -2.32735553296698
H            2.67961162303046       -1.15002314950182       -1.86269197067998
H            4.84513028492113        1.82010765712007       -1.75689324750952
H            7.12274966271298        1.81224844373452       -0.93591550420883
H            8.75044460241690        1.81970721625076        0.69345925790356
H            9.33752444727255        1.07177202365355       -0.81636681463716
H           10.06243321359601        0.61665347455618        0.74639187861542
H            7.81806170449400       -4.93117649152426        2.07072595164016
H            6.11259946296016       -5.30079123140639        2.61405103948365
H            6.67134818774237       -5.85861449814890        0.98756837212242
H            4.20818512492053       -2.10296869892417       -0.19291466580696
H           -0.19515161357816       -1.36871212696242       -1.91425914418279
H           -0.93413510576195       -1.13983773912435       -0.31825634884523
H            0.67871712910587       -1.84826972828958       -0.45976402273553
H           -4.81955626852418        2.86332095667791       -0.12063753804215
H           -3.91466346703960        2.91772196921796        2.78323329485297
H           -4.95457435592572        1.68703558732912        2.05884711352415
H           -5.51288586677259        3.35546932269754        2.18735823723501
H           -2.87813635732443        4.74502907975747        1.27637011023547
H           -3.37626545238914        4.83370692014217       -0.42232872595625
H           -4.54402122152737        5.13056212098522        0.85642373937899
H           -0.83242659300274        3.10009696964995        2.78499988085517
