72
 energy: 15.384027326271 xtb: 6.6.1 (8d0f1dd)
N           -1.56770110150902        2.87984824809678        2.25043797786793
C           -1.60204716587762        2.19562747554984        1.19795070815851
C           -2.78176559153107        2.08046970929342        0.26898582814953
C           -3.32782134778132        0.66178429279685        0.34183619264036
C           -4.29207379595331        0.23471590961533       -0.57291047094902
C           -4.82141425450101       -1.04072740820652       -0.52537889139294
O           -5.76947594232327       -1.53334854293235       -1.37604061211894
C           -6.33494120918209       -0.66808383063966       -2.32738653478264
C           -4.38206125069950       -1.94230772869707        0.46867052829295
O           -4.96648663669292       -3.17655739502942        0.44165905741801
C           -4.64919977222582       -4.09005886534420        1.45744860340057
C           -3.42844207979503       -1.52080350280875        1.37339105213722
C           -2.90831792047294       -0.23328938955742        1.30831699588053
C           -2.24127802807955        2.34857883924144       -1.16262944456804
C           -1.30344702718456        1.25402863686481       -1.70218451278210
C           -0.02238632970637        1.23031289072517       -0.95023342405312
N            0.63806351607458        0.04850914289639       -0.65117281232807
C            2.00504947162683        0.06724756186623       -0.23793185168382
C            2.95207550638791       -0.40733255144305       -1.36199933484296
C            4.37519279006465       -0.34838333883118       -0.90870342711770
C            5.13211248756552        0.79110581290470       -1.10293768443724
C            6.44393675433856        0.81815606531294       -0.64552305636509
C            7.00159234026896       -0.28334702032553        0.01973831228313
O            8.28805458242792       -0.23657434007399        0.49050216680172
C            9.08769971674620        0.90717199189211        0.28952456328901
C            6.22241493561810       -1.49452800164047        0.25759953193144
O            6.79259010163324       -2.61122415243212        0.96320724272058
C            6.47709911960551       -4.03406927472185        1.33070256690741
C            4.92822818279863       -1.43728101423402       -0.22658096876593
C           -0.02432804791018       -1.22988315987791       -0.71539362153583
C           -3.93364771406254        3.06819255710221        0.60012644614309
C           -4.55033148693544        2.75986816905936        1.96318623395848
C           -3.49524408366801        4.53071683687564        0.55841429650961
H           -4.63714574349497        0.92091968867533       -1.32941870349005
H           -6.80754384749864        0.20130788320843       -1.85765167318357
H           -7.09516605273489       -1.25709754433946       -2.83889054175878
H           -5.59336808751090       -0.32585666754249       -3.05790142205462
H           -4.89196598962125       -3.69287077388371        2.44827183267170
H           -5.26451290669067       -4.96714410940421        1.25960059809827
H           -3.59239288503460       -4.37701021571762        1.42948216910406
H           -3.08143576333738       -2.18351655155807        2.15060000738685
H           -2.18239480253357        0.07058759056536        2.04641341443337
H           -3.07964028240917        2.45011728777700       -1.85310079366176
H           -1.69721868444729        3.29434428071412       -1.15428741792389
H           -1.81550933548247        0.29553974466662       -1.64460441334474
H           -1.11594116047604        1.45933032498580       -2.76865645360824
H           -0.73056694464602        1.66712188250408        0.74637481976883
H            0.62224666908287        2.08859124595510       -1.01858254937391
H            2.15122613914273       -0.57772815070066        0.63890542488615
H            2.27067571350127        1.08564070547238        0.05078155932068
H            2.79093614620604        0.24274609725496       -2.22464106504418
H            2.68078705365925       -1.42767676950079       -1.63747591912027
H            4.70820676403974        1.64453869738844       -1.62187830765946
H            7.01424912704539        1.72795404479477       -0.82569822906954
H            8.68150425904996        1.80627827598299        0.77166338592145
H            9.24978574450780        1.11850170489147       -0.77323390528615
H           10.04583428537863        0.66514223152366        0.75155520330017
H            7.38233655333610       -4.42080798522054        1.80133475401704
H            5.66240057126484       -4.12363515782562        2.06235257220110
H            6.23813887663957       -4.68473730368064        0.48226084410420
H            4.31331882343840       -2.31013573848928       -0.07318050119850
H           -0.21453692653699       -1.53867340056049       -1.75041640521430
H           -0.98175415928913       -1.20366085082627       -0.18280415377712
H            0.60518139567566       -1.98578346690370       -0.24678665154311
H           -4.70816729861979        2.92795161296444       -0.16400680890068
H           -3.81390438346329        2.90801033285357        2.74414576479936
H           -4.90365924981720        1.73198400125059        2.00635605575234
H           -5.39114131035206        3.42504801194543        2.14725991583822
H           -2.69809135128469        4.69994547422337        1.27363666984865
H           -3.15781893987332        4.81962028678644       -0.43305492055501
H           -4.33641863664197        5.16802117697507        0.82402630524632
H           -0.68123754356641        2.88327983024165        2.74053580467692
