72
 energy: 72.471773579001 xtb: 6.6.1 (8d0f1dd)
N           -1.67122771438350        3.01898500190635        2.24774042214557
C           -1.68593100401199        2.27874690212570        1.24115630090335
C           -2.84368281653735        2.10937634607312        0.29889602960609
C           -3.34641175081318        0.67381535916574        0.36565415668136
C           -4.26947738783339        0.21448424820692       -0.57707730674784
C           -4.77976928343676       -1.06887740388336       -0.51975535975968
O           -5.68865340340992       -1.58807070222672       -1.38635541188183
C           -6.24291766869865       -0.75415300209581       -2.37409374829538
C           -4.35944233866809       -1.94514956453207        0.50934342471799
O           -4.92275464413253       -3.17954769889058        0.48689768212901
C           -4.62840768314021       -4.07329861881275        1.53079812431619
C           -3.43700480663174       -1.49116735335737        1.43136891757733
C           -2.93931011983900       -0.19496327341339        1.35968786503522
C           -2.30634281701099        2.42441434380138       -1.12323106048580
C           -1.38331370607356        1.35595870277730       -1.73104992366531
C           -0.03277605070683        1.30882820704157       -1.12432342935415
N            0.60664829798701        0.19564259656646       -0.75491276183643
C            2.00193315210152        0.22673935132477       -0.34731913296764
C            2.94982055564946       -0.19669640573726       -1.48691404854104
C            4.37331826635155       -0.18130186830903       -1.00469960153759
C            5.19146254749141        0.92415533048183       -1.20279042418912
C            6.49973293097812        0.91747987567453       -0.73767813315158
C            7.00129867475503       -0.16601534370275       -0.05018190737008
O            8.27255455161298       -0.20256657560790        0.44229427830122
C            9.12799407099317        0.89368761143206        0.25098855701997
C            6.16779689994323       -1.35705039268065        0.20543050230217
O            6.51561406435196       -2.39288742990004        0.82682767748929
C            6.75301238757199       -5.06744491661038        1.75022604322903
C            4.85055067346573       -1.26820638530569       -0.32112593880533
C            0.00097764606924       -1.12180813886991       -0.84963547983451
C           -4.02971861494765        3.05673437466656        0.62942936607302
C           -4.62825019445087        2.73431187178378        1.99680595700063
C           -3.64640568892120        4.53323190729781        0.57251157457955
H           -4.60630849176771        0.88419469165891       -1.35195234951074
H           -6.74841605719043        0.11480863448561       -1.93931962593932
H           -6.97484540359563       -1.36598750421227       -2.89983284638455
H           -5.48460328465086       -0.41254788493572       -3.08725082424420
H           -4.90781512030953       -3.66036786163399        2.50473116819107
H           -5.22523165156266       -4.96240200055488        1.33035115508012
H           -3.56817996809932       -4.34601010852790        1.54074108858601
H           -3.10049976745712       -2.13306617957494        2.22886073477226
H           -2.24037003864002        0.13563726100158        2.11261926823330
H           -3.15224465611691        2.54676713395759       -1.79993778780400
H           -1.76623841042420        3.37022614802988       -1.08613987924651
H           -1.86839384935960        0.38549613286350       -1.66979883727347
H           -1.28129549566827        1.60413128423712       -2.79828622880875
H           -0.80169216748473        1.69291496193213        0.91149013483349
H            0.54158155955580        2.22597659326400       -1.08138707571654
H            2.17413187657593       -0.44528138747734        0.50289232181879
H            2.24151561346778        1.24176608901096       -0.03162752838176
H            2.82985097825060        0.50774101850457       -2.31108431655279
H            2.68048009019891       -1.20221820953227       -1.82323221515714
H            4.82224979921427        1.78758912840319       -1.73137060518526
H            7.12368702901976        1.78037131763948       -0.91956015222823
H            8.73825026574240        1.81415602628635        0.70551893224991
H            9.32634749142741        1.08302326043053       -0.80954755708125
H           10.05951928290148        0.62245768699806        0.74624724884912
H            7.75421331997964       -4.84432760890787        2.02115405447664
H            6.02753627762714       -5.08812677910943        2.51541568982627
H            6.59055735777365       -5.65086175853013        0.88907579078793
H            4.22446622697056       -2.14240347370646       -0.17179553825925
H           -0.19812221885338       -1.40025218741389       -1.88648046706898
H           -0.94088884557935       -1.15373677100748       -0.29402572532382
H            0.66599264746778       -1.87464341332096       -0.42537477442585
H           -4.80048589552730        2.87517928433941       -0.12925514314302
H           -3.89710438369631        2.91629588837468        2.77545328855931
H           -4.94658346439233        1.69581428729245        2.04956690204948
H           -5.49124726355382        3.36930530285084        2.18041571756391
H           -2.84614554762566        4.73474132486111        1.27512149609102
H           -3.33723241650478        4.82982586092373       -0.42532700905731
H           -4.50672899130605        5.13795404349104        0.84981135981571
H           -0.81037734085681        3.05684327988182        2.78642773514007
