72
 energy: 70.487048528381 xtb: 6.6.1 (8d0f1dd)
N           -1.66689445049466        2.99025133091196        2.26350307882249
C           -1.67382969659993        2.26874731848364        1.24048131430512
C           -2.83023018499740        2.10485848194761        0.29415258696509
C           -3.34446814910297        0.67346082061100        0.36254602884552
C           -4.27428477018559        0.21941304776519       -0.57590807445663
C           -4.78763941593843       -1.06317192884029       -0.52093885270731
O           -5.70582001655461       -1.57731597560565       -1.38499983793119
C           -6.26336261242896       -0.73532288370203       -2.36347119655363
C           -4.36429316065298       -1.94596703137310        0.50046426960411
O           -4.93241124833448       -3.18034681358223        0.47747369766280
C           -4.63259861978576       -4.07728099886521        1.51493753461919
C           -3.43479942782182       -1.49787144365812        1.41837199584867
C           -2.93298101337235       -0.20319703722856        1.34823022476440
C           -2.29255866637904        2.40801477163763       -1.13265650859246
C           -1.36553684205899        1.33640571686787       -1.73128230190499
C           -0.02970723844835        1.29939846278642       -1.09145626294133
N            0.60584720011775        0.17160468367030       -0.72773273593078
C            2.00026423227072        0.19267012515754       -0.32351583358015
C            2.95169110865669       -0.24258882365857       -1.45932082337349
C            4.37782910116567       -0.21905782155811       -0.98764424182579
C            5.18086046429016        0.89490476735984       -1.18604595611502
C            6.49353537190449        0.89170721693081       -0.72631215871373
C            7.00543812880030       -0.19491271601053       -0.05311662713526
O            8.27652792919467       -0.21609777078977        0.44752196657948
C            9.11768341069286        0.89271041271502        0.25972868544680
C            6.18675561206879       -1.38859591259158        0.20858230110895
O            6.58614402102149       -2.39342780849377        0.86570617456621
C            6.71105355539895       -4.85557636903722        1.66718289003844
C            4.87115846389035       -1.30654546452011       -0.30558077886986
C           -0.00572001667784       -1.14450139237513       -0.82123977589649
C           -4.00970020997297        3.05931561321896        0.62253976816588
C           -4.61227075317048        2.74029181626705        1.98893661705388
C           -3.61385396223824        4.53304284490073        0.56932623367640
H           -4.61303588192804        0.89284769892387       -1.34648858076838
H           -6.76137787982565        0.13408923532858       -1.92090449808131
H           -7.00181738507472       -1.34163446468328       -2.88670756596648
H           -5.50872585486955       -0.39305546199110       -3.08036935204509
H           -4.90376194494507       -3.66757323604464        2.49255752398907
H           -5.23365986619909       -4.96394288592084        1.31487910807418
H           -3.57294774169935       -4.35300774023881        1.51594237754174
H           -3.09553771513476       -2.14436109613684        2.21154448835916
H           -2.22747896187797        0.12168181684467        2.09741023274376
H           -3.13695770899077        2.52608492067979       -1.81229452884336
H           -1.75030942161934        3.35311157885386       -1.10029136859560
H           -1.85127287459672        0.36746942634775       -1.66722748777810
H           -1.24825743661772        1.56665292292254       -2.80255599885972
H           -0.78976501147889        1.69528307576414        0.87913401041337
H            0.57025519626921        2.20057811242221       -1.07982841291592
H            2.17444339975658       -0.47186205442025        0.53312546809502
H            2.24442892761320        1.20802989270028       -0.01390834076510
H            2.82033141933026        0.45042561644618       -2.29168122882001
H            2.68013291992360       -1.25151311485958       -1.78292930493798
H            4.79549760913403        1.75672936088497       -1.71072509478669
H            7.11710120088211        1.75574381654099       -0.89969362470642
H            8.72494831055693        1.81085589567787        0.71980277932188
H            9.31064551145680        1.09039739522524       -0.80111594418089
H           10.05636816312704        0.62984911229085        0.74725473090884
H            7.72918097209359       -4.72014278555361        1.97735375291495
H            5.95961890557845       -4.87324811193144        2.41143858545824
H            6.52247070090435       -5.43497121055350        0.80648262650207
H            4.24847257100598       -2.17901101543680       -0.15120292135754
H           -0.20247360764399       -1.43250645803913       -1.85799187110240
H           -0.95105121601656       -1.16739416089256       -0.27096862404115
H            0.65110089979430       -1.90154847657349       -0.38970882766790
H           -4.78075596685073        2.88734795936435       -0.13789461226635
H           -3.87988895961902        2.91545864194062        2.76729083684804
H           -4.93704323615244        1.70355961869886        2.03983206841750
H           -5.47019838087900        3.38230025829660        2.17261066096232
H           -2.81458841624728        4.72580887300606        1.27524383209455
H           -3.29746047297727        4.82710845094040       -0.42706515994901
H           -4.46967728872188        5.14560093593141        0.84362399047395
H           -0.78962609438136        3.02190434757982        2.77378070823998
