72
 energy: 71.538503372799 xtb: 6.6.1 (8d0f1dd)
N           -1.67390753334487        3.00247752816648        2.25796146001950
C           -1.68355238073684        2.27076665459770        1.24391299887769
C           -2.83808294400337        2.10671544328884        0.29705966005169
C           -3.34772421448692        0.67382148295262        0.36538892060398
C           -4.27269836711756        0.21652965038813       -0.57640450304654
C           -4.78470541039992       -1.06670612041600       -0.52115487825331
O           -5.69794353492302       -1.58306168910878       -1.38617702284037
C           -6.25341842841452       -0.74466738000869       -2.36893628469290
C           -4.36269379674540       -1.94633616087166        0.50441057434540
O           -4.92800756953827       -3.18072291483134        0.48207859105197
C           -4.63059175446952       -4.07541386016296        1.52299026366352
C           -3.43645807930678       -1.49500880580622        1.42438699182452
C           -2.93686673585422       -0.19947768698017        1.35400251228748
C           -2.29908274804236        2.41576566488677       -1.12736261122220
C           -1.37349055646801        1.34547296256095       -1.72976064650561
C           -0.02947967459430        1.30072915535051       -1.10444343703985
N            0.60776662165628        0.18142029636275       -0.74047888371243
C            2.00196780800716        0.20938251824068       -0.33499964586681
C            2.95211909525287       -0.21965987857952       -1.47284390485887
C            4.37783914102050       -0.20122857492108       -0.99666413948256
C            5.18831708934018        0.90893806250724       -1.19514469887226
C            6.49858725185383        0.90531879238861       -0.73299393808464
C            7.00452503175377       -0.17896652353499       -0.05200971222931
O            8.27476910954300       -0.20961240007042        0.44548721012367
C            9.12270536827256        0.89276787512143        0.25543291047431
C            6.17979417164258       -1.37137219883871        0.20668207538244
O            6.56120430443771       -2.38774104452918        0.84365619539254
C            6.73879957513180       -4.96016995327913        1.71060530453096
C            4.86174274043371       -1.28773148350189       -0.31212723743973
C           -0.00226117429543       -1.13401730444237       -0.83588797816212
C           -4.02007732640717        3.05819005112675        0.62610866840262
C           -4.62042897024280        2.73748748044804        1.99304510494847
C           -3.63018531668716        4.53323337361660        0.57096869168852
H           -4.61019763141431        0.88860830628153       -1.34887229246674
H           -6.75514267670935        0.12454086927101       -1.93022818642529
H           -6.98844831341696       -1.35355373170629       -2.89378419734019
H           -5.49658765309611       -0.40268982108315       -3.08354705631219
H           -4.90598234175888       -3.66400763539356        2.49870383916866
H           -5.22924061687896       -4.96356687221446        1.32288356191638
H           -3.57056680293408       -4.34935032707711        1.52855675335009
H           -3.09848435294645       -2.13892790531644        2.21999023456139
H           -2.23454556977795        0.12834836378951        2.10503710684356
H           -3.14419376881204        2.53631002834859       -1.80602975602221
H           -1.75776572992974        3.36112199482907       -1.09247422130686
H           -1.85947500105471        0.37659896983387       -1.66773618621513
H           -1.26519961967278        1.58351765052517       -2.79947455000083
H           -0.79676002687662        1.69631117219493        0.89413747240604
H            0.55644945817954        2.21225878174585       -1.08110945843935
H            2.17599597795829       -0.45818750623725        0.51859084376629
H            2.24220320665751        1.22507491472376       -0.02267661791625
H            2.82602250612268        0.47939485005865       -2.30081476669320
H            2.68052809385921       -1.22650445816361       -1.80315736221011
H            4.81008304310878        1.77144706134836       -1.72141218194929
H            7.12344733897778        1.76807628839135       -0.91048286381056
H            8.73002903634090        1.81154507497095        0.71190184813936
H            9.31762908043897        1.08483884055523       -0.80548380792988
H           10.05775227176143        0.62618143002288        0.74705007043973
H            7.75070229643777       -4.77776611715111        2.00133405610205
H            5.99833711235483       -4.97963363697454        2.46161368373228
H            6.56009567293063       -5.53970676807307        0.85024431343023
H            4.23771309405646       -2.16116348409741       -0.16141476101786
H           -0.20018797155057       -1.41677942211196       -1.87289849828986
H           -0.94625515272212       -1.16067722315945       -0.28361321869468
H            0.65778292586452       -1.88940824259273       -0.40795943964826
H           -4.79088603931984        2.88139922997218       -0.13343630858353
H           -3.88838176011934        2.91603480359249        2.77122833196777
H           -4.94182158405609        1.69983757774239        2.04490703043751
H           -5.48078288804680        3.37594597357697        2.17692176080303
H           -2.83058755749224        4.73006602838260        1.27549397542899
H           -3.31700135741978        4.82840536182771       -0.42608253204987
H           -4.48822024610278        5.14198893309903        0.84650980665819
H           -0.80359894076178        3.03748684030714        2.78286326314940
