72
 energy: 72.883576170376 xtb: 6.6.1 (8d0f1dd)
N           -1.67465615887739        3.03559481866098        2.23641823798384
C           -1.68877225464912        2.28589650199368        1.23575840525426
C           -2.85051463206165        2.11200566537882        0.30054839977184
C           -3.34727343501079        0.67556702728717        0.36721731630394
C           -4.26714442467241        0.21298163881940       -0.57729289798696
C           -4.77574714866891       -1.07013069492377       -0.51747305110986
O           -5.67967793816704       -1.59332235473081       -1.38723375168792
C           -6.23285091027211       -0.76332932932519       -2.37954059006623
C           -4.35654741264503       -1.94386798335386        0.51420021201362
O           -4.91748797738173       -3.17898395794821        0.49162439896554
C           -4.62635368478067       -4.07128274153542        1.53868810706986
C           -3.43759846190347       -1.48698992967488        1.43770496037132
C           -2.94138294758883       -0.19000828311612        1.36463535793910
C           -2.31237210470827        2.43150985545757       -1.11782062305475
C           -1.39295125650446        1.36102543027107       -1.72579406662086
C           -0.03504906403611        1.30858209715664       -1.13387323221741
N            0.60718363616903        0.20505255488650       -0.76862078028993
C            2.00042616276247        0.24366835015449       -0.35830498544936
C            2.94805739759114       -0.17228786102828       -1.49919141057995
C            4.36951010448856       -0.15971031531466       -1.01157822852575
C            5.19499546595458        0.94022390333966       -1.21271867217756
C            6.50130951420488        0.93097576608383       -0.74390533400194
C            6.99831422020077       -0.15186039417167       -0.05099638459023
O            8.26873096786891       -0.19612141345396        0.44135055586768
C            9.13156391524665        0.89323435202064        0.24812097344732
C            6.15758946415440       -1.34021338292598        0.19804160978542
O            6.47640481244408       -2.38417759025131        0.81565084156527
C            6.79289856513779       -5.15943926372562        1.79477978835238
C            4.84197362308578       -1.24860000019170       -0.33294561965045
C            0.00316738888638       -1.11099890997508       -0.86399779277047
C           -4.03988524886161        3.05556020337883        0.63257640421733
C           -4.63645225524439        2.73117924460146        2.00043339524622
C           -3.66298675081382        4.53338741624633        0.57463859388050
H           -4.60322603985536        0.88029668855383       -1.35454788462583
H           -6.74191623114464        0.10538535497350       -1.94846319502192
H           -6.96155737912165       -1.37807626262490       -2.90626283627399
H           -5.47262702919788       -0.42200098344094       -3.09058237022165
H           -4.91007004418437       -3.65637327128551        2.51056794588770
H           -5.22130525492513       -4.96139082961151        1.33797488719962
H           -3.56585187580433       -4.34245697396075        1.55323174075866
H           -3.10297855984677       -2.12719522417325        2.23718464030143
H           -2.24632032736219        0.14246691237763        2.12015876742162
H           -3.15851848311765        2.55667786379298       -1.79334561660881
H           -1.77177544858868        3.37751391295322       -1.07897921476250
H           -1.87942659417721        0.39031422695335       -1.67039753305789
H           -1.28823471479622        1.61902114305600       -2.78799047497307
H           -0.80997545103024        1.69225657950637        0.91852764204835
H            0.52477294438903        2.23410619856004       -1.07444368158814
H            2.17117369592638       -0.43195121057785        0.48863372289297
H            2.23885331291204        1.25840166000896       -0.03847725167696
H            2.83502591306525        0.53773359400094       -2.31938314487264
H            2.67997111458801       -1.17556684300105       -1.84312887167000
H            4.83356395340926        1.80402319627218       -1.74516528231301
H            7.12286086202433        1.79549254986920       -0.92703230186098
H            8.74278945047019        1.81446069234494        0.69870112737851
H            9.33155914544292        1.07589189630839       -0.81327023465418
H           10.05989481070462        0.61612593604743        0.74638547802169
H            7.79110182310256       -4.88372491534081        2.04322679240124
H            6.07128393364246       -5.19233029618074        2.56583337377163
H            6.63202965554286       -5.75443137588218        0.93855698317346
H            4.21551643803912       -2.12309951482622       -0.18349859257639
H           -0.19677097012884       -1.38415928758443       -1.90116246603314
H           -0.93778835696461       -1.14656079810664       -0.30735575857122
H            0.67139057073066       -1.86232987620668       -0.44344003787457
H           -4.81081285407007        2.86973789751196       -0.12503367362567
H           -3.90597344218491        2.91728310748599        2.77913180159875
H           -4.95049665727114        1.69141878450274        2.05437482963569
H           -5.50228774583396        3.36248870879634        2.18397478601369
H           -2.86257512933116        4.73975112547555        1.27597332456251
H           -3.35675974802976        4.83161943977069       -0.42364185680631
H           -4.52567716573242        5.13437638048067        0.85296917798760
H           -0.81961990897255        3.07764532534944        2.78401021281156
