72
 energy: 69.921032049234 xtb: 6.6.1 (8d0f1dd)
N           -1.68742755343075        3.03210530937362        2.24439578800644
C           -1.68616518137616        2.28920183279901        1.23719413745569
C           -2.85668623667841        2.11903371566125        0.30698457577264
C           -3.34686473184485        0.67931367508931        0.36990688247187
C           -4.26315672475363        0.21170073611463       -0.57609159236386
C           -4.76645263316422       -1.07421022576081       -0.51754442759091
O           -5.66254285126012       -1.60727074157741       -1.39094334795325
C           -6.20580762823624       -0.79000496650103       -2.39651584006776
C           -4.34951786708237       -1.94270564914529        0.51890087676085
O           -4.90684348686686       -3.18156546454009        0.50169822701240
C           -4.62198790890299       -4.06577325009007        1.55736716588794
C           -3.43972719948221       -1.47875029197021        1.45041101741308
C           -2.94599903646970       -0.18112033334890        1.37519856127183
C           -2.32203471105291        2.44509383158280       -1.11252225895931
C           -1.40477645625202        1.36906360984846       -1.71973661572828
C           -0.05760587574527        1.32857891647432       -1.10454183679633
N            0.60879141015068        0.21997726434458       -0.77678223577565
C            1.99418286783560        0.28654340063865       -0.38333825133434
C            2.94377858411688       -0.09475011210754       -1.53531452281131
C            4.36617491115732       -0.09273672432202       -1.04131023745061
C            5.18084395294100        1.01911449522467       -1.24691135951791
C            6.49121130659179        1.02792806758407       -0.77834082220157
C            7.00105192527262       -0.04843815007242       -0.08546137053365
O            8.25770401748150       -0.13367718370088        0.41927603040051
C            9.15021279520721        0.93186573594622        0.24220480510078
C            6.18254954053651       -1.23469385025627        0.17495758502605
O            6.61601377480713       -2.21584519458662        0.80425561712394
C            6.85267156397002       -5.76768941610546        2.03464520473096
C            4.85451062119686       -1.17670823366918       -0.34951900752561
C            0.01087836127984       -1.08735678340161       -0.88864836772179
C           -4.05788450030509        3.04911182387081        0.64422851402979
C           -4.65263361273824        2.72117586333705        2.01284778018062
C           -3.70571364578728        4.53406726102690        0.58072331280341
H           -4.59673597850244        0.87218862034571       -1.35986804195666
H           -6.72586250797695        0.07735485140906       -1.97662095748048
H           -6.92329840957816       -1.41734713877837       -2.92320136594510
H           -5.44049163174777       -0.45001396232159       -3.10295881904383
H           -4.91767803230497       -3.64740592474749        2.52500003320443
H           -5.21290010769429       -4.95772613882674        1.35557068475780
H           -3.56103511706169       -4.33539362457591        1.58651198054900
H           -3.11171805051332       -2.11343167768383        2.25811744883205
H           -2.26075293837412        0.15488225354307        2.13813825684954
H           -3.17173843606030        2.58243596146826       -1.78187772426439
H           -1.77924000666829        3.39063439637944       -1.07283476012316
H           -1.89712788121154        0.39924268718721       -1.66827508298182
H           -1.27823595131186        1.62300889249299       -2.78108879421887
H           -0.80757523986724        1.71494210236471        0.89537399911026
H            0.48787363218792        2.25633787866742       -1.03124351973152
H            2.16151931886314       -0.39521863391941        0.45486687523259
H            2.22695293007281        1.30021633540396       -0.05087062936390
H            2.81971949144984        0.62101935467666       -2.35043814155034
H            2.68046948884436       -1.08850069800484       -1.90194934206109
H            4.80583422590007        1.87590398232739       -1.78841323458546
H            7.10067149297790        1.90016570320574       -0.97068632186109
H            8.77513179022635        1.85690190017898        0.69511864484466
H            9.36289917082022        1.11126577679180       -0.81813179573021
H           10.06851215337711        0.63227305652747        0.74660088654302
H            7.67101512136797       -5.08190730202252        2.08456424450441
H            6.12189399064085       -5.78456079302450        2.81403108940686
H            6.69323014012101       -6.34445536141230        1.14943873548175
H            4.24075027605821       -2.05272920874838       -0.18961249732357
H           -0.19735483648503       -1.34398436043752       -1.93035901365381
H           -0.92464370724866       -1.12776152572965       -0.32438026830919
H            0.69545807371832       -1.82665144609088       -0.48070274258462
H           -4.82728919439158        2.85057939615975       -0.11164904132412
H           -3.92201434409805        2.91720939752373        2.79025955407528
H           -4.95695824515216        1.67882110770416        2.06760231706089
H           -5.52653463852023        3.34332512478938        2.19011541203910
H           -2.90413504076495        4.75877961723264        1.27676977968281
H           -3.40880312629766        4.83735929315691       -0.41997730493169
H           -4.57709837594261        5.12046184870171        0.86176069795588
H           -0.82155809710487        3.08049012727074        2.77611109990562
