72
 energy: -5.252097944293 xtb: 6.6.1 (8d0f1dd)
N           -1.50404617768150        2.78810926266949        2.23794254145310
C           -1.55823923586327        2.15667906137859        1.15395891365645
C           -2.75203705990487        2.06277431023900        0.24757863789673
C           -3.31693831796618        0.64998199621420        0.32725341339621
C           -4.30170456424280        0.24432430973355       -0.57586695679178
C           -4.84449027466428       -1.02507918952031       -0.52973418229993
O           -5.81135195146189       -1.49644806483521       -1.36624906620219
C           -6.38615459403678       -0.61898555469047       -2.30038217976151
C           -4.39571040431413       -1.94204607896489        0.44720755628546
O           -4.98766276846489       -3.16877699739926        0.41559304926610
C           -4.66069686239768       -4.09820715246475        1.41601567865549
C           -3.42339902599078       -1.53934327281133        1.34160600783266
C           -2.89025353939060       -0.25639510879572        1.28077865468081
C           -2.20279841445678        2.30889785314968       -1.18205046029357
C           -1.26919742167393        1.18956199099871       -1.67185004722128
C            0.00021633288474        1.14260887580605       -0.90163985470611
N            0.63871737092618       -0.03354195268786       -0.57976639212715
C            2.00440382705841       -0.01623723972113       -0.17253588371538
C            2.93868423735137       -0.51839353680488       -1.29338763484067
C            4.36228849579215       -0.42010732797936       -0.84961441365979
C            5.08455248591477        0.74114907414207       -1.05164785834407
C            6.39553259616603        0.83862120269414       -0.60920707502867
C            6.99483276497658       -0.22300370479266        0.05256087277430
O            8.27647719358128       -0.21786010256259        0.52255378027062
C            9.07066009583531        0.92286248646799        0.31497272339789
C            6.26080687671291       -1.41777716701761        0.27942750362730
O            6.92967385375781       -2.41828886699641        0.93547885397384
C            6.34568432273609       -3.68061230352432        1.18202163270315
C            4.95801249628326       -1.48596633900065       -0.17351468784617
C           -0.04551654231197       -1.29199573105807       -0.63716191004777
C           -3.87906050337527        3.07592332642655        0.58630435679139
C           -4.50355976797816        2.77249919736609        1.94698495511345
C           -3.41032328826725        4.52954740255368        0.55048124443322
H           -4.65477018813559        0.94103746127664       -1.31858203276488
H           -6.84290421409912        0.24921339271068       -1.81339571933534
H           -7.16094691499023       -1.19756491402432       -2.80123523262913
H           -5.65617144731161       -0.27824437664441       -3.04295609134266
H           -4.88385279137548       -3.71150442768140        2.41594255893361
H           -5.28646266707088       -4.96727935268853        1.21863631853402
H           -3.60702082567298       -4.39414985139784        1.36739817046458
H           -3.07208141550325       -2.21257697543597        2.10770785154967
H           -2.15159059853815        0.03079896456247        2.01340083545763
H           -3.03485777062149        2.39526432971982       -1.88153192145691
H           -1.65912485996993        3.25527926742387       -1.19438741406184
H           -1.80552711246377        0.24199169264477       -1.62686112886594
H           -1.02428634924976        1.39004556508786       -2.72299226845829
H           -0.69129850418010        1.65418212922723        0.65511389389275
H            0.64278247503603        2.00428398759657       -0.95448776193270
H            2.12507742980711       -0.65080005345292        0.71227321257646
H            2.29604484465289        1.00143114375949        0.09936183198071
H            2.77030250090414        0.09746310818790       -2.17880621371253
H            2.68013776789713       -1.55029336734036       -1.53417824333531
H            4.63503216716275        1.57550676072240       -1.57164401685546
H            6.93842638464443        1.75379066824209       -0.79566597030892
H            8.65524657498738        1.80858887283740        0.80910480455417
H            9.20804025778956        1.13511796065821       -0.75100253928493
H           10.03626667262772        0.68592575300411        0.75981264064187
H            7.11295187698223       -4.26993474880359        1.68120451395730
H            5.47411869967720       -3.61104180231253        1.84296432140695
H            6.05643713330875       -4.19241402186057        0.25762745722873
H            4.38638636678197       -2.38767738536442       -0.01646532319075
H           -0.22096715288347       -1.60957877317076       -1.67086527687718
H           -1.00998001768728       -1.23529602101098       -0.12208529731143
H            0.56811758641653       -2.04204309720813       -0.14386682567046
H           -4.65428181288406        2.95260888369966       -0.17917557519176
H           -3.76671582027137        2.90290307414024        2.73239055680819
H           -4.87887934847779        1.75252401856007        1.98368829920840
H           -5.33255661735201        3.45217877342223        2.12919841096167
H           -2.61592643902499        4.68947618437192        1.27287007887081
H           -3.05949737129329        4.81742235084729       -0.43733305011832
H           -4.24238519537122        5.18013653470291        0.81017441411849
H           -0.61193462738868        2.78705753656886        2.72857374794140
