72
 energy: 72.390293426816 xtb: 6.6.1 (8d0f1dd)
N           -1.70299486494564        3.04867699854775        2.23353904278137
C           -1.68839221052852        2.29976320978680        1.23276684913014
C           -2.86277716482285        2.12189071399723        0.30988815974564
C           -3.34852708263948        0.68084924768386        0.37306445580176
C           -4.25998978470569        0.20952766352159       -0.57713993516541
C           -4.76124140182065       -1.07671983220750       -0.51711289140953
O           -5.65259009992674       -1.61249384094182       -1.39516496147968
C           -6.20256777161178       -0.79171608358727       -2.39701377685112
C           -4.34679102369994       -1.94087866820034        0.52351941699493
O           -4.90109815952321       -3.18026348932881        0.50590781690915
C           -4.61819140993941       -4.06525240986999        1.56255345340031
C           -3.43988412064275       -1.47602137448020        1.45569946065954
C           -2.94940885205685       -0.17729759302616        1.38144219597334
C           -2.32608273085091        2.45600852677127       -1.10441029483579
C           -1.41705286736974        1.37783584016005       -1.71470253173932
C           -0.05649254192568        1.33524564673965       -1.13539657493902
N            0.60798749556061        0.23409896265337       -0.78674944471834
C            1.99628820341430        0.29448426048459       -0.38509235119179
C            2.94259961768106       -0.10315565357667       -1.53192534529300
C            4.35907790385749       -0.10225131457723       -1.03503150891162
C            5.19626440711269        0.99027579575313       -1.23707661004848
C            6.50037190653813        0.98191057406339       -0.76166118805667
C            6.99465122385858       -0.09450272922223       -0.06167068708203
O            8.25879969640738       -0.16731004004323        0.43745958277202
C            9.14287255522965        0.90667977279006        0.24551479656942
C            6.14728275688470       -1.27144458848402        0.17289985856149
O            6.49184571088228       -2.30536578798628        0.77134550033939
C            6.85494250859291       -5.44832696209162        1.91262351951523
C            4.82761900555986       -1.18990880997083       -0.35507322448669
C            0.01032740130988       -1.07516383401067       -0.89539531078320
C           -4.06453206070294        3.05043239094053        0.64566122840573
C           -4.65825730004327        2.72074282521995        2.01354010522300
C           -3.71114031890004        4.53470656132888        0.57966363485992
H           -4.59623778153262        0.86832637308420       -1.36197279366750
H           -6.72351665487040        0.07492649817495       -1.97585737532907
H           -6.92193021738119       -1.41607949283396       -2.92455279412194
H           -5.43808580728352       -0.45093352108107       -3.10335318397635
H           -4.91665002472495       -3.64593322114883        2.52834515675588
H           -5.20814997910335       -4.95764893976253        1.36028450957230
H           -3.55742245273353       -4.33378436694528        1.59093174793127
H           -3.11199685158254       -2.11137592337786        2.26238250730933
H           -2.26621761408540        0.15798819261968        2.14630590039369
H           -3.17603566091282        2.58950322220463       -1.77320310324462
H           -1.78851808862910        3.40532698030645       -1.06213047915619
H           -1.90949425097646        0.40760915328571       -1.66915324190229
H           -1.29259963216601        1.64213459856812       -2.76906183564528
H           -0.81234709364039        1.71240931541470        0.91699133316963
H            0.48185114019173        2.26463895229960       -1.05985344950317
H            2.16094403324311       -0.39155924423431        0.45233756732218
H            2.24271106431232        1.30707110711654       -0.05443670473644
H            2.85126027754655        0.62270471108573       -2.34278261127945
H            2.67665380816491       -1.10003767423488       -1.90042900468885
H            4.85211259512615        1.85478625767917       -1.77824907343498
H            7.12268046824385        1.84413058699802       -0.95127434225890
H            8.76488967762868        1.83382819744551        0.69084440054768
H            9.35213242574409        1.08060686027271       -0.81682043402568
H           10.06769302320431        0.62239393753333        0.74681535870349
H            7.82012383213103       -5.06888539493539        2.11672309784047
H            6.17256615830983       -5.52084817654476        2.71680271943453
H            6.73532956120668       -6.07618158745568        1.07006269175085
H            4.19917612876520       -2.06274489541282       -0.20767641860147
H           -0.19155012844680       -1.33510952476787       -1.93523663478296
H           -0.92743707330026       -1.12391604857843       -0.33756277050930
H            0.69095557048481       -1.81812317678266       -0.48531514196923
H           -4.83259068738262        2.84592835975874       -0.10993861804641
H           -3.93192105353761        2.91955992969462        2.79365446911531
H           -4.96273048829841        1.67836316864343        2.06914558309898
H           -5.53304375011064        3.34008810815086        2.19238765941376
H           -2.91005451520465        4.75863761623618        1.27625828733593
H           -3.41627769653013        4.83932888190389       -0.42119223776477
H           -4.58227827400581        5.12082092569112        0.86174670346133
H           -0.84143173268366        3.11152373916203        2.76884088957522
