72
 energy: 70.181371407594 xtb: 6.6.1 (8d0f1dd)
N           -1.68152615938616        3.03386941322484        2.24037026883583
C           -1.68727402892293        2.28745492387882        1.23638255511464
C           -2.85731646842673        2.11833731102470        0.30639754103344
C           -3.34757209883831        0.67934537176430        0.37008476165766
C           -4.26362373057676        0.21166307654162       -0.57581391673319
C           -4.76791819174004       -1.07351113378459       -0.51639535437964
O           -5.66361498902529       -1.60718341819665       -1.38917116063315
C           -6.20269263579228       -0.79279169185333       -2.39817794228903
C           -4.35040410348985       -1.94260229628818        0.51887091972868
O           -4.90773436384386       -3.18116147652381        0.50191277390583
C           -4.62146956893776       -4.06544397671163        1.55704994205644
C           -3.43911159718499       -1.47940544348578        1.44896969005637
C           -2.94484248324182       -0.18192872471984        1.37354810069920
C           -2.32219455672487        2.44642760590047       -1.11245911706490
C           -1.40516048307528        1.36850629899907       -1.71658285689623
C           -0.06423411883765        1.33069600345073       -1.08799443413869
N            0.60712987915348        0.22069801222117       -0.77411245014772
C            1.99219127447995        0.28923732754237       -0.38824536706502
C            2.93647664439064       -0.08203223460502       -1.54666955037219
C            4.35786207632324       -0.08198873580174       -1.04870136418326
C            5.18218912230941        1.02511589174483       -1.24602861638983
C            6.49141019995122        1.02000587265627       -0.77574317490154
C            7.00029914803091       -0.05792853589555       -0.08578745446105
O            8.25857390598570       -0.13940005976383        0.42030191975386
C            9.14702044405748        0.93000091899434        0.24319569807668
C            6.17183575944570       -1.23439600640374        0.16960396368418
O            6.58789558044802       -2.22861706686890        0.79163286953246
C            6.87238228764037       -5.72386533865349        2.03128362234992
C            4.84354137996900       -1.16582306300735       -0.35527630029494
C            0.01136803458400       -1.08731138103424       -0.88977338234452
C           -4.05976333160952        3.04795561220042        0.64497145083557
C           -4.65409669832224        2.72009173808998        2.01393738595208
C           -3.70993352032623        4.53341892438836        0.58170526135301
H           -4.59583414754414        0.87083183551652       -1.36100678458204
H           -6.72357188371040        0.07424099301605       -1.97893977427048
H           -6.91714845960029       -1.42219248465062       -2.92673047450829
H           -5.43617772432960       -0.45101454222604       -3.10301701106105
H           -4.91727991485637       -3.64737826526233        2.52517292337099
H           -5.21107186600932       -4.95825815543491        1.35469190761904
H           -3.55991112495374       -4.33349458759167        1.58776438832877
H           -3.11280209783160       -2.11311363036312        2.25791602691011
H           -2.26135152311418        0.15434969676008        2.13768187245574
H           -3.17171976837966        2.58536627687291       -1.78107571571054
H           -1.77707829786712        3.39127260974104       -1.07146654318823
H           -1.89760656325447        0.39866583936076       -1.66373497863960
H           -1.26998182992528        1.61577599725006       -2.77766414343661
H           -0.80956160479694        1.71446284203749        0.88892241350616
H            0.47930885976148        2.26134493263992       -1.02799431434895
H            2.15992880836558       -0.39672432356278        0.44618329886943
H            2.22154870679357        1.30157630745136       -0.05227514814958
H            2.80380141257874        0.63466615298271       -2.35811774102819
H            2.67381437002545       -1.07281084312637       -1.91725827649699
H            4.81989791272823        1.88572257421672       -1.78907585776249
H            7.10444959838006        1.88938486064528       -0.96375263344744
H            8.77003750856141        1.85436874422105        0.69624248544028
H            9.35706837988456        1.10869215353636       -0.81744934101765
H           10.06771853112187        0.63511105327388        0.74661483657889
H            7.72079712278528       -5.09798487040819        2.11223002447481
H            6.17370681186649       -5.76313241860841        2.83405382816722
H            6.74048228313195       -6.32015331277343        1.15715348097598
H            4.23599704132274       -2.04533419499757       -0.19619630179646
H           -0.19891396242634       -1.34211549960153       -1.93216616775111
H           -0.92345917064473       -1.12552964542790       -0.32273736512323
H            0.70029694253645       -1.82290692937328       -0.48448519403536
H           -4.83115873755265        2.84783586046385       -0.10854545934833
H           -3.92304205471272        2.91711161705543        2.79096204176478
H           -4.95630078704688        1.67711881508609        2.06972281555329
H           -5.52862865795886        3.34240521666754        2.18867848962955
H           -2.90836712314728        4.76140457819222        1.27699034521030
H           -3.41098943231797        4.83667489393838       -0.41844785951983
H           -4.58262082319336        5.11879022426022        0.86164199148508
H           -0.81274839047434        3.07625762025214        2.76789261727593
