72
 energy: 59.969797080540 xtb: 6.6.1 (8d0f1dd)
N           -1.62369344413076        2.94175825189790        2.25988824478937
C           -1.63996433076396        2.24378828059818        1.22107903386008
C           -2.80843562497303        2.09601494432099        0.28373558084677
C           -3.33668477032889        0.67029044723553        0.35364011160989
C           -4.28191014845523        0.22690052223890       -0.57433734570004
C           -4.80216436225582       -1.05269212842535       -0.52240523773980
O           -5.73305329719471       -1.55988231854058       -1.38195285124696
C           -6.29417269055769       -0.70675838183385       -2.34810985413156
C           -4.37119652629924       -1.94308980857744        0.48716195682180
O           -4.94684910542222       -3.17861374866659        0.46273781238467
C           -4.63928923877919       -4.08287138943769        1.49026024445039
C           -3.43174829392526       -1.50669961988145        1.39940212270533
C           -2.92241806954820       -0.21499418000873        1.33091652246815
C           -2.27175461137133        2.38395364524214       -1.14632990319450
C           -1.33936629606747        1.30456608801954       -1.72151749362674
C           -0.03049682025166        1.28191570469274       -1.02574484235249
N            0.61437778315211        0.12588283278930       -0.69533098070202
C            2.00226318913845        0.13847587499951       -0.28898310087590
C            2.95264674958662       -0.31503795462947       -1.41603295127683
C            4.38080342271410       -0.27680488908646       -0.95424362017389
C            5.16017731382354        0.84454222017720       -1.15240732120625
C            6.47423337346581        0.84212243639324       -0.69258839584001
C            6.99972342001076       -0.25533579922211       -0.02342296298275
O            8.27959162686657       -0.23294268364471        0.47018082377782
C            9.10019345717035        0.89665927434689        0.27207455876329
C            6.19818335420049       -1.46500124361068        0.23731677922725
O            6.66040917493360       -2.51449735496685        0.93756678083193
C            6.58966344145245       -4.48834026322074        1.50951820291406
C            4.90366339455255       -1.36984477474100       -0.27196616404906
C           -0.01434448910320       -1.17931092627401       -0.77725773011741
C           -3.97739660374304        3.06329291724344        0.61316854057024
C           -4.58623320874639        2.74880743389271        1.97795253483702
C           -3.56351040156238        4.53246607993009        0.56507185044328
H           -4.62342164176168        0.90533823941573       -1.33925012740015
H           -6.78104122398012        0.16284320217474       -1.89357439650422
H           -7.04214682142860       -1.30514334081768       -2.86684764508175
H           -5.54503089247163       -0.36398368192467       -3.07063841679697
H           -4.89830082914026       -3.67863976135767        2.47363652864576
H           -5.24653547386489       -4.96549825921675        1.29080047285093
H           -3.58075853617074       -4.36328794230573        1.47841017829802
H           -3.08914614520858       -2.16064014077467        2.18540738715055
H           -2.20807095749978        0.10078730401702        2.07521073864430
H           -3.11305303338436        2.49446459376340       -1.83050052789288
H           -1.72805393630339        3.32891828570007       -1.12298420193154
H           -1.83271569123745        0.33843772887138       -1.65835737884450
H           -1.19035494866501        1.51890676295429       -2.79223976849138
H           -0.76333418015184        1.68613728055346        0.82212610596336
H            0.59831417118397        2.15647454965724       -1.06033470765339
H            2.16733542093120       -0.51676167327934        0.57745145823235
H            2.25484836631250        1.15476416272985        0.01286605781351
H            2.80838183166260        0.36042231866267       -2.26172800656194
H            2.68141139198240       -1.32885569095008       -1.72125108635648
H            4.75959686971822        1.70541386426717       -1.67428012105961
H            7.07659068298854        1.72854268486105       -0.86404190804584
H            8.70269650847040        1.80898962125254        0.74108362919283
H            9.27989583737326        1.10257691438398       -0.79006621054336
H           10.05052598215116        0.64680285515319        0.74657831110286
H            7.58530267968287       -4.58286847449813        1.90424169457727
H            5.82409321222659       -4.54808263709748        2.25886502306513
H            6.39411973123436       -5.11065973104380        0.66246763507858
H            4.27487214784180       -2.23578464372805       -0.11563143983546
H           -0.20883452016690       -1.47803347829153       -1.81315787942709
H           -0.96446606589755       -1.18401497336379       -0.23343081023423
H            0.63131211474963       -1.93806264519660       -0.33191515803248
H           -4.74982820971948        2.90523722459327       -0.14920902642101
H           -3.85207927967200        2.91207359139119        2.75723709529175
H           -4.92308750058182        1.71569390118698        2.02535472460109
H           -5.43661466933654        3.40119637324290        2.16206004356106
H           -2.76495593927009        4.71369964531951        1.27493451118755
H           -3.23801259454369        4.82395278847016       -0.42928155593375
H           -4.41269220397716        5.15616900759462        0.83590460557034
H           -0.74075646462663        2.96564252847792        2.75370780540397
