  25
        -42.15923442
 C          3.0732931120        1.5739946756        0.0110376503
 N          2.2804036637        0.4293908357       -0.0026230608
 C          2.4075363479       -2.3866165355        0.1914302472
 N          1.2502859744       -2.0761582579       -0.2003297716
 C          0.4564938237       -1.0421933077       -0.0282103360
 C          1.0094581544        0.2961404078       -0.0214984167
 C          0.0405068261        1.4412826583       -0.0269295402
 O          0.4180745759        2.5901487178       -0.0389799327
 N         -1.2849557902        1.0942059789       -0.0047618962
 C         -2.2791109284        2.1605602347        0.0063603863
 C         -1.8051642122       -0.1897961070        0.0138428996
 O         -2.9845335509       -0.4005465450        0.0434835801
 N         -0.8745776597       -1.2374659953       -0.0012272295
 C         -1.3867644732       -2.5929474048        0.0170764384
 H          3.7199556917        1.5395545633        0.8933529097
 H          3.7308759634        1.5414621131       -0.8638212753
 H          2.4950115274        2.5081807124        0.0102342434
 H          2.8514689133       -1.9729214173        1.0923404011
 H         -1.7628957644        3.1160814084        0.0530193185
 H         -2.8871243891        2.1049133153       -0.8966323349
 H         -2.9336402792        2.0381887254        0.8690474226
 H         -1.2216536948       -3.0524404223        0.9923851241
 H         -0.8745579770       -3.1817086210       -0.7441350563
 H         -2.4559438549       -2.5579540678       -0.1846541540
 H          2.9549629359       -3.1519748363       -0.3327220307
