25
 energy: 0.487508042870 xtb: 6.6.1 (8d0f1dd)
C            3.24908866893723        1.24169993949491        0.10148216826302
N            2.36212019003304        0.11229113065010        0.02294818764480
C            2.69310917692041       -1.23404220135639        0.04075321306172
N            1.52219952916052       -1.95958445789390        0.01849753027617
C            0.45249615566148       -1.13324587076918       -0.01083848800586
C            0.96165522147633        0.17842539794022       -0.00315395147654
C            0.15606208943586        1.33469658550261       -0.02277708998592
O            0.49935005015332        2.52272173760365       -0.02799649921300
N           -1.22381833134141        0.98691637118882       -0.03815356286061
C           -2.18631818117684        2.07339116092511       -0.05105003168294
C           -1.75913499436875       -0.25196006344745       -0.04741180424776
O           -2.96912818939140       -0.39250544022824       -0.06122539981158
N           -0.91396412562216       -1.39203487488806       -0.03936272483577
C           -1.71342987035282       -2.62413232986281       -0.06706010107022
H            3.77740199315252        1.27754338255024        1.06081987411519
H            3.99796925347334        1.21104669554025       -0.69670890984887
H            2.64991337837787        2.14987014641112        0.00572794861562
H            3.67872205118257       -1.64551316063209        0.06210890020017
H           -1.62253750890983        3.00504387206407       -0.02926329039030
H           -2.79627516238865        2.00761824365558       -0.95195175535741
H           -2.83712488850851        1.99205486994077        0.81912328851679
H           -1.58912055308836       -3.24981568629784        0.81708327940746
H           -1.58170187077798       -3.21345919534804       -0.97521621476078
H           -2.74454235408884       -2.27199618835717       -0.06691359181749
H            1.50744144167722       -2.96516239145115        0.02858201263609
