25
 energy: 37.785586362418 xtb: 6.6.1 (8d0f1dd)
C            3.64332413200040        1.88841476702084        0.09854141222994
N            2.96559545069426        0.61951688911469        0.07972083224273
C            3.52535448841994       -0.58014397367918        0.09189479294517
N            2.56830149368086       -1.53107341256050        0.06416621135464
C            1.33501563545705       -0.90942951654937        0.03237405945814
C            1.60767661555361        0.46378589135454        0.04123217218774
C            0.51753434128372        1.40775714265725        0.00807408074423
O            0.64260881657402        2.62556624919153        0.00886951935391
N           -0.69151917370993        0.75713623290650       -0.02603550430773
C           -1.89521884711506        1.56521077512500       -0.06390852592393
C           -0.90948375709366       -0.66235954576897       -0.02790781525778
O           -2.04961480872010       -1.06063891471178       -0.05624316994055
N            0.16779475490616       -1.48262344645373        0.00176201074318
C           -4.93861414126737       -3.47108345425636       -0.17901745029935
H            4.25394585347927        1.98238254716485        0.99731598882954
H            4.28029976395876        1.98629004801045       -0.78066654275411
H            2.88171147399833        2.66907664218793        0.08995032436330
H            4.57954853075781       -0.76842719879883        0.11832939920872
H           -1.59892039359036        2.61163510742286       -0.04953402453539
H           -2.45984182887379        1.34044529375948       -0.96872952270225
H           -2.52055662527516        1.33273246662839        0.79795273773368
H           -5.23231572223926       -3.93545750345870        0.73597950633701
H           -5.38340096338033       -3.77297088027231       -1.10113196960553
H           -4.25969805301873       -2.65098850336068       -0.16117098850169
H            2.70962923317213       -2.52842099458780        0.06647473348457
