25
 energy: 38.685935659945 xtb: 6.6.1 (8d0f1dd)
C            3.53739916037823        1.80541953459755        0.10418884662362
N            2.86997427389495        0.52948100404641        0.07266413860757
C            3.40081273575955       -0.68258571758944        0.09226463279864
N            2.42262106008936       -1.61598794722465        0.06341908327833
C            1.20024020349444       -0.96947754527464        0.02366740940654
C            1.51211543574365        0.39493457694340        0.02537741513555
C            0.45991930389994        1.37291856855401       -0.01703101510686
O            0.63184434709173        2.58575939274224       -0.02626670388741
N           -0.77017888096223        0.77007260332106       -0.04411559521706
C           -1.93194877310698        1.63604500178466       -0.06893265189381
C           -1.03691303940220       -0.63886452620561       -0.02890812751538
O           -2.19394061595994       -0.98407827734439       -0.03942069524279
N            0.01095240587497       -1.50143766367631       -0.00283762732726
C           -4.52662157664358       -3.39439502350405       -0.17431694996839
H            4.19706939738132        1.87447659203430        0.96767085846421
H            4.10856296813319        1.96424277010485       -0.80813143945564
H            2.76667840660768        2.57730813335963        0.16677548009568
H            4.44922821452524       -0.89670134226849        0.12640455318505
H           -1.56575759029405        2.66094194728770       -0.07006643981821
H           -2.52173478622589        1.43491160017576       -0.96222355048663
H           -2.55028913843309        1.44509961180917        0.80779222770781
H           -4.69165892413924       -3.92476982133098        0.73546873913678
H           -4.82245991396108       -3.78942449431253       -1.11906954829116
H           -4.26742159893030       -2.36260983049378       -0.11999864645561
H            2.54952715381121       -2.61775525976844        0.07686378352856
