25
 energy: 6.139636559939 xtb: 6.6.1 (8d0f1dd)
C            3.24358086406555        1.26301094644046        0.10496397923702
N            2.37652540323279        0.11400017538048        0.02272170501310
C            2.72074050944073       -1.22818921123781        0.04267797230442
N            1.55726401015991       -1.96817155292770        0.02261063069984
C            0.46667260400470       -1.16295202393352       -0.01243450790544
C            0.97312589066541        0.15668519204680       -0.00814672676936
C            0.17476246965811        1.31680620540471       -0.03109714826959
O            0.51833550234582        2.50532080801696       -0.04059161852402
N           -1.19965432573154        0.97128988086431       -0.04248076333852
C           -2.16738952718962        2.05286181460030       -0.05224590957058
C           -1.73632341985429       -0.26418086284911       -0.04625979731587
O           -2.95139497706342       -0.36985065260613       -0.05229673507533
N           -0.91388874928630       -1.42572527142024       -0.04136681312230
C           -1.79524268748342       -2.62076144659959       -0.07020407861984
H            3.79312810082721        1.29647502263721        1.05274806054988
H            3.97880842539257        1.26642823048140       -0.70749008044858
H            2.62338474522983        2.16044921246242        0.03815662278923
H            3.71391118321841       -1.62401705251563        0.07104334502661
H           -1.60698828713086        2.98603303151396       -0.03170043208015
H           -2.78047261568345        1.98046775847625       -0.95066941565420
H           -2.81567159127074        1.96550046824640        0.81941390488675
H           -1.72759950349749       -3.26093223722068        0.80933754151037
H           -1.72671982490670       -3.21571628983606       -0.98131670347272
H           -2.79669234528334       -2.19155822839907       -0.06293962361941
H            1.56561968816789       -2.97408946483658        0.03838774827579
