25
 energy: 13.395933746154 xtb: 6.6.1 (8d0f1dd)
C            3.23653497912784        1.28395478615104        0.10813360872001
N            2.38994933789895        0.11621157165730        0.02328458727183
C            2.74679650532211       -1.22106166318321        0.04424865311740
N            1.59167926660835       -1.97570939562590        0.02638654530026
C            0.48048578456217       -1.19193155790923       -0.01433242993812
C            0.98384174283668        0.13586567256788       -0.01333850226475
C            0.19266421447561        1.29929000192719       -0.03927609671222
O            0.53682325992267        2.48835732578266       -0.05135877233303
N           -1.17650675112162        0.95483893560671       -0.04759845553166
C           -2.14833645998120        2.03243970040832       -0.05365365988002
C           -1.71433250761769       -0.27892658357561       -0.04241569232379
O           -2.93308606319510       -0.35267331960649       -0.03568450117803
N           -0.91612209312128       -1.46029263865343       -0.04310710387047
C           -1.87543222681670       -2.62056576558240       -0.07465633665335
H            3.80855957214113        1.31549731125002        1.04287124393217
H            3.95534708838415        1.32059839475098       -0.71903166548837
H            2.59609880050261        2.16957572532969        0.07070370235860
H            3.74719780454635       -1.60074328749678        0.08059143971047
H           -1.59072840087396        2.96679569536540       -0.03477372690380
H           -2.76472504870376        1.95423662069314       -0.94938479893009
H           -2.79346427853963        1.94034363260744        0.81997079481732
H           -1.86029806978076       -3.27067233495539        0.79990040844360
H           -1.86679855697595       -3.21527267774172       -0.98850291766684
H           -2.84704461015357       -2.12310248415365       -0.05867729746637
H            1.62262708697679       -2.98143366241659        0.04718230645948
