25
 energy: 39.140315905911 xtb: 6.6.1 (8d0f1dd)
C            3.49834105733121        1.77938248939175        0.10769340367970
N            2.83876514751285        0.49772732547198        0.06947699415275
C            3.36187708521098       -0.71843559941501        0.09171768255065
N            2.37727870632610       -1.64738108812638        0.06207939656448
C            1.15715883105212       -0.99549887972464        0.01922171270482
C            1.48098768010534        0.36710796973525        0.01886898655824
C            0.44214873241774        1.35595063713039       -0.02701491706929
O            0.62718128080275        2.56760567362436       -0.04007464455150
N           -0.79486642476221        0.76796268610127       -0.05165045299763
C           -1.94291302474754        1.65358846754534       -0.07094069673321
C           -1.07662303393490       -0.63595976284532       -0.03052508379763
O           -2.23919693186889       -0.96175192095937       -0.03438520297757
N           -0.03942445925148       -1.51489284525981       -0.00642881957097
C           -4.39119033019467       -3.32417782336501       -0.16791656627417
H            4.17164273057134        1.84339367677561        0.95979420774228
H            4.04888085359480        1.96331001231333       -0.81213387064529
H            2.72397437151278        2.54621616131441        0.19339815068788
H            4.40827607750587       -0.94165555544104        0.13003986014814
H           -1.55299315760193        2.67017769036151       -0.07927152566568
H           -2.54491896071523        1.46010301884109       -0.95782807099434
H           -2.55678067244377        1.47962170588583        0.81270109701241
H           -4.51149168827599       -3.87451346817109        0.73562325313491
H           -4.63510674830091       -3.74570460837018       -1.11482141738043
H           -4.22129035831987       -2.27360774113267       -0.10845553551411
H            2.50161905399008       -2.65025721584265        0.07944989710051
