25
 energy: 37.825416424724 xtb: 6.6.1 (8d0f1dd)
C            3.66133545814273        1.91773391367203        0.10130888573201
N            2.98931763622850        0.64349547356329        0.07936617268273
C            3.55992329710501       -0.55241071812203        0.09043394098055
N            2.61517182325273       -1.51520563706746        0.06270361261208
C            1.37545573133687       -0.90782856007845        0.03211269502849
C            1.63250002302747        0.47022188670967        0.04358342707042
C            0.52860727180305        1.40025691306593        0.01215603494022
O            0.63607232358388        2.61901768663692        0.01546070805489
N           -0.67806138551345        0.74047911984876       -0.02447846082345
C           -1.88937433703447        1.53967607772418       -0.06476942450264
C           -0.87901703709191       -0.67690917018935       -0.03042214220912
O           -2.01353096651438       -1.09234907556052       -0.06254608939963
N            0.20954670942440       -1.48652584041644       -0.00112681627837
C           -5.03411267030066       -3.44804037483494       -0.17543354440101
H            4.25901040550900        2.01619166444270        1.00797595211208
H            4.31532152825781        2.01707017024895       -0.76545931845922
H            2.90554904944008        2.70356817205030        0.07806791598037
H            4.61574913859845       -0.73259755075455        0.11669204315165
H           -1.60251198490056        2.58891360224362       -0.04946841550730
H           -2.45201626274094        1.31219936313954       -0.97066251931572
H           -2.51697642791715        1.30351802963425        0.79489591823088
H           -5.35207220253779       -3.90623165338143        0.73749267972698
H           -5.49433635396011       -3.73500360256475       -1.09773550864569
H           -4.25069704876709       -2.71925232674241       -0.16636302845131
H            2.77136058654047       -2.51095877452456        0.06324919388623
