  25
        -42.24743549
 C          3.1971654523        1.1385151625        0.1405291239
 N          2.2742338265        0.0545772237       -0.0076145775
 C          2.5459756999       -1.2410079950       -0.0484984260
 N          1.3943052389       -1.9521572502       -0.0690026669
 C          0.3541964227       -1.0695210177       -0.0321064233
 C          0.9073395656        0.1993836767        0.0005232654
 C          0.0813927704        1.3950788002       -0.0222942070
 O          0.4911630831        2.5294723431       -0.0540905267
 N         -1.2719521693        1.0658558563       -0.0158519106
 C         -2.2274478958        2.1673196164       -0.0297346005
 C         -1.8465335826       -0.1922011061        0.0165354424
 O         -3.0317332355       -0.3595020224        0.0571714674
 N         -0.9669380616       -1.3011031487       -0.0082897548
 C         -1.5226263401       -2.6391691270        0.0480134928
 H          3.2668159860        1.4180601152        1.1968765894
 H          4.1846811862        0.8608323536       -0.2219970362
 H          2.8299952037        2.0175016650       -0.3978403193
 H          3.5273736586       -1.6723829222       -0.0759940940
 H         -1.6683340571        3.0994895644       -0.0449598461
 H         -2.8631133135        2.0930456482       -0.9112936780
 H         -2.8593135911        2.1180600059        0.8562780679
 H         -1.1545781735       -3.1657354134        0.9290484420
 H         -1.2779743276       -3.1979609474       -0.8553879605
 H         -2.6051687616       -2.5384694913        0.1201324019
 H          1.3314897320       -2.9596737777       -0.1130767659
