25
 energy: 0.000000000000 xtb: 6.6.1 (8d0f1dd)
C            3.23720163006194        1.16630919979326        0.08434469647475
N            2.29877817382611        0.07527477071623        0.03981603040599
C            2.58028210190900       -1.21425402444508        0.03006176031096
N            1.43813958087363       -1.93419271955128        0.00098261760884
C            0.39035688448383       -1.05887472636071       -0.00790371836672
C            0.93510056364412        0.21347819449412        0.01709077491437
C            0.09450143893243        1.40504303904423       -0.00410947031874
O            0.49712751527797        2.54126714362870       -0.00342325688240
N           -1.25076640035757        1.06271879480407       -0.03085478223738
C           -2.21907211982101        2.15522099834493       -0.05001256985998
C           -1.81739487048744       -0.20012725993278       -0.04692818574614
O           -2.99983886758376       -0.37846417018721       -0.07008878229737
N           -0.92618586207120       -1.30210215599479       -0.03682761578324
C           -1.46982264913417       -2.64643102187190       -0.06029820460571
H            3.71247264356769        1.21471455160235        1.06488849150277
H            4.00791497605742        1.03430808813993       -0.67357694370751
H            2.69910007168542        2.09770118228144       -0.09130154882931
H            3.56654120610678       -1.63682992603973        0.04233140067262
H           -1.67107961066214        3.09322851271934       -0.02552706933167
H           -2.82428953597071        2.09428624779827       -0.95318082946668
H           -2.87644029173232        2.07745725625962        0.81450067533302
H           -1.17061996399332       -3.19584890659852        0.83242232437030
H           -1.14560257411436       -3.17511610292205       -0.95688275822323
H           -2.55549792440841       -2.55659984320617       -0.07459039797972
H            1.38130855184625       -2.94313852034425       -0.01389874181052
25
 energy: -2.523481159009 xtb: 6.6.1 (8d0f1dd)
C            3.23509679546651        1.17925056725201        0.08748762347316
N            2.29867013132564        0.08993920931917        0.03976109530965
C            2.59242685115925       -1.24203640439736        0.03176273914559
N            1.43873728251914       -1.99013292704643       -0.00266303430407
C            0.40236731833957       -1.07887486140062       -0.00724814717324
C            0.92377489846489        0.21346956617136        0.01678910262691
C            0.09733939370383        1.39981074549070       -0.00435779813685
O            0.49394103129913        2.56675916082698       -0.00437355461531
N           -1.26572575623204        1.06348223737843       -0.03060308842833
C           -2.23035227237451        2.16107946661083       -0.05138754982742
C           -1.82260740116045       -0.19014558698908       -0.04577954881163
O           -3.01955961045112       -0.37086644788964       -0.06927474034499
N           -0.93289221427538       -1.29622036443178       -0.03541755738797
C           -1.47037262635861       -2.63229539850218       -0.05795955936431
H            3.71604972468992        1.23086915522478        1.06832609393946
H            4.00629157962794        1.04530878124588       -0.67282314980986
H            2.70098725016528        2.11226317810275       -0.09003097496275
H            3.57426886261877       -1.64934279805835        0.04501938234863
H           -1.67860330299265        3.09870275675069       -0.02793515129990
H           -2.83833231566916        2.10731679698753       -0.95452101244858
H           -2.89157833869048        2.09282621600829        0.81235833932855
H           -1.15464418722938       -3.17547419381866        0.83411543959732
H           -1.13222467841486       -3.15430069070889       -0.95443865043851
H           -2.55537571087532       -2.54389840584605       -0.07064842195000
H            1.42453196328030       -3.04846115610836       -0.02912398031825
25
 energy: 2.324419072871 xtb: 6.6.1 (8d0f1dd)
C            3.23138445743094        1.18391851594908        0.09043164982580
N            2.29534362760980        0.09558425673821        0.03887020672516
C            2.59648834165436       -1.26256309747535        0.03357752949482
N            1.43760273706728       -2.03843244912128       -0.00652956240391
C            0.41176566498817       -1.10059853702064       -0.00828355973983
C            0.91140477066413        0.20501621102001        0.01657607989700
C            0.09926666880095        1.38467455257028       -0.00383791226562
O            0.48493468595835        2.56445677500579       -0.00505934655497
N           -1.28309036858240        1.06931913942151       -0.03011716704710
C           -2.24166036740767        2.17296315507553       -0.05316312169743
C           -1.82457995175340       -0.17650640775510       -0.04455491075930
O           -3.02591794589274       -0.36434132718353       -0.06772192585531
N           -0.93932070404714       -1.28355138546675       -0.03433053341401
C           -1.47048655944659       -2.61492301739701       -0.05493654274921
H            3.71638782921488        1.24428283726353        1.07095806908562
H            4.00465911068678        1.05599937396358       -0.67086548034615
H            2.70000223816767        2.11940214382539       -0.08790303062039
H            3.57966031754159       -1.65118475581525        0.04830628407019
H           -1.68647078504186        3.10961227595133       -0.03096111140875
H           -2.85243776773889        2.12378955685797       -0.95581049936483
H           -2.90717157747417        2.11245618754749        0.80903629201303
H           -1.13844317803607       -3.15301301050484        0.83546864662812
H           -1.12089750815862       -3.13186340160584       -0.95093882769643
H           -2.55518082620756       -2.53462588650732       -0.06482072274481
H            1.48897175793842       -3.14084310316475       -0.04635660692438
25
 energy: 5.118283439499 xtb: 6.6.1 (8d0f1dd)
C            3.22950986416433        1.18303098751024        0.09147958682921
N            2.29465406801518        0.09424273771111        0.03707869109238
C            2.59496214023930       -1.26899950018058        0.03333259021527
N            1.43573819305561       -2.05257435811024       -0.00794284420695
C            0.41413802229353       -1.10886099948989       -0.01108785045030
C            0.90793543427895        0.19913570285979        0.01547402320123
C            0.10036281501734        1.37868661693424       -0.00363318055348
O            0.48131739716213        2.55817303922145       -0.00465321554669
N           -1.29038427625082        1.07552348988500       -0.02994719313290
C           -2.24620270355970        2.18028620728713       -0.05378795602386
C           -1.82576166512635       -0.17058173712682       -0.04428512400643
O           -3.02618882260437       -0.36522173137594       -0.06665198266071
N           -0.94105279317973       -1.27559510577525       -0.03469363803159
C           -1.46985302591615       -2.60813788890755       -0.05367163557781
H            3.71345015119512        1.24670704366208        1.07248691220856
H            4.00396669284803        1.05977222399093       -0.66936878764876
H            2.69764607766427        2.11925902995447       -0.08670933807801
H            3.58177882550782       -1.64989005787863        0.04958513799062
H           -1.69032205593847        3.11630190829285       -0.03208097256618
H           -2.85753191369708        2.13110336448000       -0.95630995362087
H           -2.91281683601380        2.12114220961547        0.80786452976372
H           -1.13106712025783       -3.14370889624995        0.83574594049397
H           -1.11757736675310       -3.12309035135325       -0.94977225178243
H           -2.55475137824661       -2.53464323577641       -0.06125691029579
H            1.52026494403862       -3.17303209700819       -0.05016068146489
25
 energy: 5.843816634169 xtb: 6.6.1 (8d0f1dd)
C            3.22918707050975        1.18173732147190        0.09175633192713
N            2.29535506717219        0.09234155873720        0.03569173660542
C            2.59276333656263       -1.27013251517961        0.03289149047237
N            1.43372064336435       -2.05327911778646       -0.00811567043072
C            0.41381884974640       -1.11035240245745       -0.01276249473366
C            0.90804460334572        0.19703559300460        0.01459997655370
C            0.10126120796446        1.37788763574233       -0.00378554051265
O            0.48036191585255        2.55565086367231       -0.00432301135930
N           -1.29210826410833        1.07849876714949       -0.02996626700782
C           -2.24720185135775        2.18254173182641       -0.05388952989856
C           -1.82674813961013       -0.16904940455613       -0.04423491035513
O           -3.02597639203269       -0.36697134668864       -0.06622763196121
N           -0.94141153339142       -1.27202835367389       -0.03489205471246
C           -1.46926654013685       -2.60661077395340       -0.05332572039440
H            3.71159810448414        1.24591621994249        1.07326754526219
H            4.00413955050592        1.06034467276061       -0.66853427039707
H            2.69652962506047        2.11792881374447       -0.08641767016618
H            3.58128532343606       -1.64875759934986        0.04989287732189
H           -1.69176631116133        3.11854763135256       -0.03227953001823
H           -2.85851819020478        2.13275660439586       -0.95643334867964
H           -2.91377117028971        2.12308510816390        0.80779359745925
H           -1.12836606161674       -3.14093892694462        0.83572213925527
H           -1.11674175816247       -3.12059514359626       -0.94969232830401
H           -2.55425458678724       -2.53643484255637       -0.05989424821017
H            1.53028016879098       -3.18009349304942       -0.04980757156867
25
 energy: 5.913545613722 xtb: 6.6.1 (8d0f1dd)
C            3.22925616234303        1.18104456255050        0.09182022784724
N            2.29618271365480        0.09106402654988        0.03482004249970
C            2.59128783784010       -1.27016384368752        0.03275753616951
N            1.43229229720309       -2.05132915871600       -0.00800566748444
C            0.41307365206047       -1.11007350359853       -0.01329425012623
C            0.90873464176608        0.19669125582094        0.01420719759409
C            0.10197363741074        1.37827466256922       -0.00395337387947
O            0.48015576818067        2.55533894765274       -0.00421902860518
N           -1.29201178793657        1.07914519046662       -0.03001322276835
C           -2.24703329076236        2.18255888500235       -0.05389993553161
C           -1.82744058648077       -0.16899922720920       -0.04417960912469
O           -3.02604622218940       -0.36768818489204       -0.06611278067540
N           -0.94162729151797       -1.27076677262589       -0.03467849790010
C           -1.46895961362416       -2.60662135216692       -0.05322203974002
H            3.71084644898248        1.24516196298977        1.07361526930936
H            4.00452829765367        1.06027132244134       -0.66806683024160
H            2.69613421448629        2.11700947711617       -0.08647315560585
H            3.58030629398622       -1.64833568724837        0.04986920859784
H           -1.69221272749262        3.11885571169615       -0.03228173476990
H           -2.85840671162337        2.13264479214002       -0.95644210491674
H           -2.91355681952648        2.12295215692656        0.80785940132857
H           -1.12742672479442       -3.14029998575868        0.83571660373824
H           -1.11630755358848       -3.11986692879764       -0.94981187399218
H           -2.55392592465267       -2.53753348207046       -0.05955693568681
H            1.53239795655784       -3.18030622497900       -0.04942054988868
25
 energy: 5.835249020678 xtb: 6.6.1 (8d0f1dd)
C            3.22931069446901        1.18092757910518        0.09180342805922
N            2.29676976004515        0.09047027024621        0.03420869721686
C            2.59068338788481       -1.27024869823076        0.03288057393296
N            1.43162388430459       -2.04980709926525       -0.00783334235059
C            0.41260418558429       -1.10957000234627       -0.01323269649452
C            0.90919019121437        0.19716179236147        0.01412179835423
C            0.10248113214668        1.37871169306590       -0.00404171500672
O            0.48011235215868        2.55599544789900       -0.00423645973611
N           -1.29153272079797        1.07870517388857       -0.03004273653821
C           -2.24662440034331        2.18194256635980       -0.05389134343303
C           -1.82777595505665       -0.16928984833820       -0.04413649406081
O           -3.02628423196975       -0.36750493680527       -0.06615687775237
N           -0.94184440604798       -1.27066282383486       -0.03424912706187
C           -1.46886215686436       -2.60696330843668       -0.05320032103590
H            3.71063462019928        1.24497162307894        1.07373451970086
H            4.00488969240756        1.06034039847818       -0.66782698876514
H            2.69593623185701        2.11663654418664       -0.08660924730820
H            3.57969244215101       -1.64850366263082        0.04965882200917
H           -1.69218282489030        3.11852172772778       -0.03222999742879
H           -2.85810246183068        2.13219765244971       -0.95642265735090
H           -2.91321601145544        2.12240251368499        0.80788865714452
H           -1.12728024007616       -3.14048711536365        0.83569137215063
H           -1.11599086168072       -3.11972745319302       -0.94990315766382
H           -2.55378129219498       -2.53784245868973       -0.05966474229288
H            1.53176365672204       -3.17934897322583       -0.04927606814128
