25
 energy: 0.000000000000 xtb: 6.6.1 (8d0f1dd)
C            3.23720163006194        1.16630919979326        0.08434469647475
N            2.29877817382611        0.07527477071623        0.03981603040599
C            2.58028210190900       -1.21425402444508        0.03006176031096
N            1.43813958087363       -1.93419271955128        0.00098261760884
C            0.39035688448383       -1.05887472636071       -0.00790371836672
C            0.93510056364412        0.21347819449412        0.01709077491437
C            0.09450143893243        1.40504303904423       -0.00410947031874
O            0.49712751527797        2.54126714362870       -0.00342325688240
N           -1.25076640035757        1.06271879480407       -0.03085478223738
C           -2.21907211982101        2.15522099834493       -0.05001256985998
C           -1.81739487048744       -0.20012725993278       -0.04692818574614
O           -2.99983886758376       -0.37846417018721       -0.07008878229737
N           -0.92618586207120       -1.30210215599479       -0.03682761578324
C           -1.46982264913417       -2.64643102187190       -0.06029820460571
H            3.71247264356769        1.21471455160235        1.06488849150277
H            4.00791497605742        1.03430808813993       -0.67357694370751
H            2.69910007168542        2.09770118228144       -0.09130154882931
H            3.56654120610678       -1.63682992603973        0.04233140067262
H           -1.67107961066214        3.09322851271934       -0.02552706933167
H           -2.82428953597071        2.09428624779827       -0.95318082946668
H           -2.87644029173232        2.07745725625962        0.81450067533302
H           -1.17061996399332       -3.19584890659852        0.83242232437030
H           -1.14560257411436       -3.17511610292205       -0.95688275822323
H           -2.55549792440841       -2.55659984320617       -0.07459039797972
H            1.38130855184625       -2.94313852034425       -0.01389874181052
25
 energy: -1.335308971688 xtb: 6.6.1 (8d0f1dd)
C            3.23374609504876        1.17969305665605        0.08745011073613
N            2.29660273299589        0.08955894308052        0.04002173666741
C            2.59038233829567       -1.24308562020721        0.03207691423022
N            1.44048045133477       -1.99950823843884       -0.00290083875080
C            0.40327322669388       -1.08258576516645       -0.00697860638470
C            0.92239449444541        0.21251138646057        0.01704414502253
C            0.09638575964416        1.40114442622666       -0.00421112245794
O            0.49272658366686        2.56832007764241       -0.00431902266834
N           -1.26661665648787        1.06603181244086       -0.03053606902377
C           -2.23197503728105        2.16366033933745       -0.05156200695841
C           -1.82230919698897       -0.18806653172553       -0.04559752036619
O           -3.01925036302324       -0.36855143881298       -0.06919173159576
N           -0.93270544594717       -1.29518463211272       -0.03515499135352
C           -1.47004878953867       -2.63040938992566       -0.05769578870407
H            3.71518097184597        1.23181797636189        1.06809540220720
H            4.00552249829737        1.04545786118136       -0.67232061736281
H            2.70234271470037        2.11444412128373       -0.09036006119156
H            3.57281009923328       -1.64658327782792        0.04536592355062
H           -1.68193389405748        3.10239781068905       -0.02821936840750
H           -2.84021198742888        2.10942408605856       -0.95454505087722
H           -2.89357572805717        2.09514165494754        0.81192878064777
H           -1.15254614197715       -3.17252387033695        0.83428390002134
H           -1.13039775895098       -3.15120516773029       -0.95418236708693
H           -2.55498879149602       -2.54280941304574       -0.07022517304530
H            1.43692649296846       -3.07006160486433       -0.03123268070107
25
 energy: 6.902578102368 xtb: 6.6.1 (8d0f1dd)
C            3.22894904879706        1.18473933850278        0.09028637596235
N            2.29117634079805        0.09545748665094        0.03927219704014
C            2.59228048349145       -1.26489368267052        0.03423038858533
N            1.44059484791980       -2.05947286253409       -0.00680360130708
C            0.41377205257612       -1.10854379634176       -0.00799801239559
C            0.90795815956732        0.20241129657683        0.01701485533052
C            0.09717352537390        1.38666513225631       -0.00343075898853
O            0.48259466039360        2.56697641496680       -0.00479665515474
N           -1.28580551829140        1.07547711872177       -0.02993996626635
C           -2.24577965754906        2.17895425696236       -0.05344337140454
C           -1.82443097778022       -0.17092684151228       -0.04425226808981
O           -3.02597793117122       -0.35906469325729       -0.06759592744908
N           -0.93955270660282       -1.27971605057773       -0.03384680986950
C           -1.46991483760945       -2.60987581803498       -0.05445821258522
H            3.71435218128601        1.24619015927522        1.07074464213120
H            4.00321410039525        1.05577084430779       -0.67005802313098
H            2.70276850629412        2.12353924218133       -0.08900842275811
H            3.57752689290199       -1.64438470904210        0.04919854459398
H           -1.69419347143750        3.11791556752530       -0.03141999267785
H           -2.85692762117884        2.12840265322503       -0.95590088036306
H           -2.91192958340022        2.11741937603513        0.80832588643405
H           -1.13361793434037       -3.14606568123129        0.83547176511119
H           -1.11669212039619       -3.12453112070066       -0.95028381207367
H           -2.55449542393313       -2.53271574736407       -0.06402337353080
H            1.51917165183195       -3.19069928174882       -0.05025067099654
25
 energy: 12.331258329365 xtb: 6.6.1 (8d0f1dd)
C            3.22695152463219        1.18409929683363        0.09125975313343
N            2.29009512032447        0.09440417704254        0.03727470617480
C            2.58981306378412       -1.27244852304303        0.03403848721247
N            1.43865871554999       -2.07907416437830       -0.00810766346572
C            0.41663849060491       -1.11796839483253       -0.01131410363909
C            0.90376469520821        0.19589222355343        0.01564830711338
C            0.09773294346102        1.38093549058969       -0.00315908591987
O            0.47855106267870        2.56084377050560       -0.00417714078148
N           -1.29434959135799        1.08411178248194       -0.02968449670022
C           -2.25217593507426        2.18821464240516       -0.05399932251758
C           -1.82604016182106       -0.16282226561417       -0.04393254754608
O           -3.02664081679754       -0.35884619510715       -0.06642617061527
N           -0.94154500692103       -1.26910935540248       -0.03421974058464
C           -1.46884422186311       -2.60089643509310       -0.05319338229734
H            3.71073498322945        1.24948307065232        1.07244333150939
H            4.00253763005083        1.05953442890478       -0.66837882920617
H            2.70105671432584        2.12416818763770       -0.08843134794909
H            3.57988261794561       -1.64127889511470        0.05096256779499
H           -1.70114731793671        3.12723498738813       -0.03247572565919
H           -2.86399834347369        2.13705160367580       -0.95627843153987
H           -2.91960121387385        2.12742612365395        0.80710787677130
H           -1.12413157079818       -3.13395027860184        0.83547704684656
H           -1.11156684700230       -3.11279490607317       -0.94903765841907
H           -2.55364542775920       -2.53253970524829       -0.06029374597002
H            1.55948356081979       -3.24264206464388       -0.05406878759834
25
 energy: 14.491012017642 xtb: 6.6.1 (8d0f1dd)
C            3.22708479757852        1.18316587905505        0.09144310813423
N            2.29111219068628        0.09298422946751        0.03598688420240
C            2.58697953783242       -1.27364339469343        0.03380817918918
N            1.43581388066746       -2.07997696724699       -0.00792659351753
C            0.41608491721568       -1.11846331417435       -0.01298553955712
C            0.90402690584872        0.19428947597101        0.01486886529378
C            0.09831134457208        1.38085205608776       -0.00323710869552
O            0.47727373472237        2.55874376059570       -0.00388811527802
N           -1.29633897991078        1.08809500217889       -0.02962815761844
C           -2.25380803279134        2.19084769607072       -0.05406298575643
C           -1.82743558177057       -0.16061864326414       -0.04378349443542
O           -3.02664777506201       -0.36044084688650       -0.06602894232143
N           -0.94203088702561       -1.26406052393069       -0.03421162251193
C           -1.46792912844753       -2.59858786570513       -0.05290267980646
H            3.70914779366532        1.24935327510543        1.07316243837210
H            4.00304803786873        1.06015824354498       -0.66760601203652
H            2.70053666311569        2.12331941693739       -0.08853734579080
H            3.57909934585412       -1.63940856585251        0.05142322269560
H           -1.70372447780156        3.13008228661893       -0.03260891767430
H           -2.86553794371925        2.13857284186644       -0.95639776490311
H           -2.92111905271430        2.12918131816705        0.80709949640872
H           -1.12096167041949       -3.13021494358882        0.83533933109885
H           -1.10985980213815       -3.10921066605008       -0.94893779710761
H           -2.55277499983466       -2.53429966032941       -0.05923131255895
H            1.57186384994405       -3.26169148777282       -0.05412323967797
25
 energy: 15.965628910801 xtb: 6.6.1 (8d0f1dd)
C            3.22759049877363        1.18276281325932        0.09140155156748
N            2.29266425035272        0.09178025343913        0.03506258166227
C            2.58446934037372       -1.27327347538764        0.03396027396749
N            1.43303079084191       -2.07554095127696       -0.00726061445542
C            0.41466986360838       -1.11663516291298       -0.01369222136866
C            0.90535261431803        0.19457991878441        0.01458368044681
C            0.09891844537783        1.38221321570943       -0.00331875042318
O            0.47662778031493        2.55875088804526       -0.00385125078905
N           -1.29619324445195        1.08954969625687       -0.02958605314436
C           -2.25382498781312        2.19097217448200       -0.05404432127917
C           -1.82870769028967       -0.16037373315471       -0.04364030090984
O           -3.02684832569609       -0.36130665550848       -0.06592158376540
N           -0.94241246454981       -1.26137607195381       -0.03370969117583
C           -1.46729443379965       -2.59821331561261       -0.05283933456418
H            3.70857774995982        1.24909963130413        1.07341284381509
H            4.00377972877468        1.06039305420140       -0.66718197049553
H            2.70039008216099        2.12264923483513       -0.08885761710260
H            3.57745786375363       -1.63823749774138        0.05142973890887
H           -1.70490099957961        3.13072005938394       -0.03255445858537
H           -2.86556031079587        2.13823460410697       -0.95640057837865
H           -2.92107930401964        2.12878503056149        0.80719400763875
H           -1.11970218073557       -3.12881547380439        0.83529935086585
H           -1.10871212814289       -3.10758173452781       -0.94910677283478
H           -2.55207309288796       -2.53552493363087       -0.05919629376678
H            1.57599482208776       -3.27458296668581       -0.05414831968654
25
 energy: 16.800798067998 xtb: 6.6.1 (8d0f1dd)
C            3.22779820773195        1.18315317024034        0.09125317498293
N            2.29354525445704        0.09153102957964        0.03464623708499
C            2.58369524814362       -1.27258883046361        0.03445016762370
N            1.43212427830011       -2.07115921125360       -0.00660585297981
C            0.41382276783390       -1.11491547514095       -0.01368723015292
C            0.90622591498274        0.19595949472523        0.01464561377534
C            0.09917041510982        1.38351704946206       -0.00334202311451
O            0.47651344134691        2.56014487143166       -0.00398184883578
N           -1.29530324372441        1.08901998989981       -0.02954682616751
C           -2.25323453756062        2.19010699612600       -0.05397615306591
C           -1.82916818286476       -0.16094526154489       -0.04359469920584
O           -3.02716745081783       -0.36074709481488       -0.06601974718427
N           -0.94266637813174       -1.26128699879851       -0.03317624934939
C           -1.46716460224175       -2.59874019913941       -0.05293038771727
H            3.70866163964176        1.24931353116436        1.07331103859642
H            4.00416968261042        1.06075957315177       -0.66715309962053
H            2.70029405810978        2.12272191039799       -0.08908621107651
H            3.57656652348935       -1.63806203985177        0.05115028559167
H           -1.70489822698797        3.13026589776577       -0.03241745552708
H           -2.86507625630652        2.13756781909630       -0.95632530900652
H           -2.92059206053722        2.12795535660063        0.80726306346313
H           -1.11989234132914       -3.12917286165821        0.83524636604222
H           -1.10833244797566       -3.10755083688616       -0.94926745873240
H           -2.55187999708026       -2.53556974465844       -0.05964473776657
H            1.57500296173667       -3.28224953325914       -0.05417676151030
25
 energy: 17.431222334693 xtb: 6.6.1 (8d0f1dd)
C            3.22777658080912        1.18385027675512        0.09113747603115
N            2.29371087751968        0.09194462185270        0.03451785251448
C            2.58402429210873       -1.27201038918385        0.03515226713720
N            1.43264127852114       -2.06842176237289       -0.00615596035043
C            0.41365755117360       -1.11394141838156       -0.01352006464821
C            0.90640517621174        0.19753674493290        0.01477864987198
C            0.09909800816298        1.38438984009313       -0.00334205066851
O            0.47661272494566        2.56166787282693       -0.00416096347100
N           -1.29466818461866        1.08815693564580       -0.02950611115193
C           -2.25286396469116        2.18948498746379       -0.05392017546937
C           -1.82903705754555       -0.16138957836866       -0.04358294129735
O           -3.02736405982408       -0.35968734279185       -0.06615966970409
N           -0.94278311305086       -1.26219507065648       -0.03281531866707
C           -1.46726209751505       -2.59922719328661       -0.05304107509799
H            3.70890295091251        1.24975104858715        1.07315269444656
H            4.00427127663265        1.06121533183557       -0.66725882133482
H            2.70024136613986        2.12322933495863       -0.08915521286035
H            3.57648812254076       -1.63819519398296        0.05068765725529
H           -1.70454813767730        3.12976558329652       -0.03231917417229
H           -2.86475140765196        2.13719575260818       -0.95627185789997
H           -2.92029684782761        2.12747154767300        0.80729680164477
H           -1.12053559891573       -3.13001142927461        0.83518904229967
H           -1.10841472251389       -3.10808698250228       -0.94933877057712
H           -2.55197677295160       -2.53507981902021       -0.06004199851897
H            1.57288642704127       -3.28838509653542       -0.05428837916435
25
 energy: 17.761534486249 xtb: 6.6.1 (8d0f1dd)
C            3.22771876855269        1.18427546437841        0.09111999206165
N            2.29337568948258        0.09251295018208        0.03461285694360
C            2.58466262250049       -1.27166968773695        0.03578019467165
N            1.43366205535892       -2.06794786555235       -0.00602340591408
C            0.41392356319137       -1.11387481935166       -0.01345130939789
C            0.90608113193545        0.19833050766540        0.01483884733908
C            0.09885876058343        1.38460515754242       -0.00334160757895
O            0.47674679936084        2.56228972961653       -0.00426167404471
N           -1.29465153424938        1.08786135991373       -0.02948689211516
C           -2.25295677938556        2.18950156530413       -0.05390753961617
C           -1.82868058153085       -0.16139077711840       -0.04359777734152
O           -3.02731239388860       -0.35914662087624       -0.06622097094966
N           -0.94273947457683       -1.26292533296785       -0.03279091146424
C           -1.46737923284995       -2.59929266559168       -0.05308965447778
H            3.70907484310751        1.25000730463670        1.07308432681486
H            4.00419527692209        1.06140743861863       -0.66734891801398
H            2.70034491817364        2.12368850105192       -0.08910249319023
H            3.57687447672186       -1.63818626518167        0.05021288379657
H           -1.70433627623802        3.12963508877666       -0.03230922834688
H           -2.86478605742582        2.13723751054767       -0.95627007529846
H           -2.92035612464257        2.12750795284927        0.80729748431264
H           -1.12097168350441       -3.13047669344192        0.83517262593215
H           -1.10867333788947       -3.10851086926163       -0.94932644452083
H           -2.55213386812744       -2.53466757997110       -0.06014383963935
H            1.57167310635422       -3.29174275186008       -0.05441257381501
25
 energy: 17.906847905030 xtb: 6.6.1 (8d0f1dd)
C            3.22773477643213        1.18439784811683        0.09116081968715
N            2.29291060198541        0.09299162968768        0.03484144905834
C            2.58517718363354       -1.27136371972496        0.03648285698884
N            1.43462863474396       -2.06843530548711       -0.00602471804585
C            0.41425095526007       -1.11419635122516       -0.01350963079103
C            0.90563987425360        0.19846769207703        0.01482021903300
C            0.09860546780815        1.38450709784660       -0.00335196402602
O            0.47686983880078        2.56225570458176       -0.00429479920973
N           -1.29495225769930        1.08803046469260       -0.02948775947260
C           -2.25326697485046        2.18983095800375       -0.05391981091963
C           -1.82837380163611       -0.16115700976325       -0.04362594422672
O           -3.02712691906153       -0.35918452720252       -0.06620436152679
N           -0.94260768476268       -1.26325790601643       -0.03300233154446
C           -1.46744751120918       -2.59912462292309       -0.05310183861040
H            3.70918215665459        1.25004076027915        1.07308518985405
H            4.00407607757655        1.06130872604233       -0.66740380717294
H            2.70059321478380        2.12397426628708       -0.08902295544004
H            3.57730566132583       -1.63796278024745        0.04960769604912
H           -1.70431609567416        3.12974356588975       -0.03234581365698
H           -2.86499978080833        2.13745340812476       -0.95629127220027
H           -2.92057474909982        2.12777168685573        0.80728894241374
H           -1.12113644750465       -3.13055251706697        0.83518925008204
H           -1.10892319126969       -3.10873264653498       -0.94929594586695
H           -2.55224121572919       -2.53448308463778       -0.06007709065775
H            1.57120685398289       -3.29329473548331       -0.05448248365079
