25
 energy: -42.545939151844 xtb: 6.6.1 (8d0f1dd)
C            3.22928986928296        1.18294841553952        0.08856907057345
N            2.28496011525472        0.09214801976079        0.03800249281976
C            2.53618564433450       -1.23663743640585        0.04462656605392
N            1.43154995851759       -1.96831473517234        0.00860435211423
C            0.40646299561222       -1.07438954096274       -0.01393062769943
C            0.91188982355363        0.22280074263262        0.01583921721001
C            0.08754868685262        1.40547703675898       -0.00056135210997
O            0.47013450518871        2.56141047459567       -0.00559592655912
N           -1.27296110094345        1.08213664519824       -0.02897821489025
C           -2.23842142768358        2.17328247315006       -0.05256843544590
C           -1.81968027493666       -0.18917816775097       -0.04433684212539
O           -3.01916323516006       -0.35495720556486       -0.06753720542259
N           -0.94074580844344       -1.26794847132791       -0.03508948960939
C           -1.47195628883997       -2.61442898648432       -0.05562784251830
H            3.71069127968009        1.23655913102743        1.06802705413033
H            4.00072704237617        1.05096458164913       -0.67062896575883
H            2.70369746163160        2.12250658688747       -0.09028735297652
H            3.54052081660746       -1.61646486951297        0.05277687083910
H           -1.69122334887741        3.11350423468152       -0.03036923633383
H           -2.84448745813821        2.11394677709274       -0.95603590745854
H           -2.89895465789999        2.10116077666231        0.81085359155194
H           -1.13963028070610       -3.15635538070759        0.83059764080880
H           -1.12163431794073       -3.13528828786793       -0.94773330153852
H           -2.55661924375313       -2.53688854721111       -0.06563702353982
H            1.69944445577379       -3.65058140550768       -0.09183788213551
