25
 energy: 0.000000000000 xtb: 6.6.1 (8d0f1dd)
C            3.23720132972391        1.16630909158653        0.08434468864950
N            2.29877796055224        0.07527476373246        0.03981602671198
C            2.58028186251803       -1.21425391179017        0.03006175752192
N            1.43813944744728       -1.93419254010258        0.00098261751768
C            0.39035684826767       -1.05887462812143       -0.00790371763344
C            0.93510047688824        0.21347817468824        0.01709077332874
C            0.09450143016486        1.40504290868848       -0.00410946993748
O            0.49712746915594        2.54126690785742       -0.00342325656480
N           -1.25076628431515        1.06271869620815       -0.03085477937476
C           -2.21907191394203        2.15522079838987       -0.05001256521996
C           -1.81739470187490       -0.20012724136556       -0.04692818139228
O           -2.99983858926755       -0.37846413507442       -0.07008877579474
N           -0.92618577614240       -1.30210203518959       -0.03682761236648
C           -1.46982251276835       -2.64643077634382       -0.06029819901142
H            3.71247229913541        1.21471443890471        1.06488839270555
H            4.00791460421487        1.03430799217987       -0.67357688121503
H            2.69909982127087        2.09770098766290       -0.09130154035862
H            3.56654087521359       -1.63682977417947        0.04233139674524
H           -1.67107945562430        3.09322822573871       -0.02552706696334
H           -2.82428927394145        2.09428605349656       -0.95318074103337
H           -2.87644002486466        2.07745706351925        0.81450059976605
H           -1.17061985538665       -3.19584861009707        0.83242224714061
H           -1.14560246782873       -3.17511580834413       -0.95688266944647
H           -2.55549768731684       -2.55659960601237       -0.07459039105944
H            1.38130842369251       -2.94313824728853       -0.01389874052104
25
 energy: -0.096682703800 xtb: 6.6.1 (8d0f1dd)
C            3.23274982511346        1.18015595639431        0.08737255202544
N            2.29474520704489        0.08954531926597        0.04020132066052
C            2.58832877525956       -1.24368573410013        0.03232926344728
N            1.44175650421412       -2.00752904506455       -0.00296932249542
C            0.40394744049535       -1.08543934492353       -0.00673133289911
C            0.92118072987480        0.21206993881621        0.01724418587808
C            0.09551139791756        1.40256667091382       -0.00410101757191
O            0.49151039029806        2.56994268612769       -0.00428078998016
N           -1.26733342578999        1.06825921071012       -0.03049150063145
C           -2.23326912027421        2.16580203194314       -0.05167665233835
C           -1.82203679440151       -0.18624484360413       -0.04547703681821
O           -3.01894247757598       -0.36658506389971       -0.06915527794079
N           -0.93257117505331       -1.29418147092765       -0.03494919699650
C           -1.46972953373722       -2.62880965318561       -0.05751781388434
H            3.71458072547961        1.23250066892490        1.06787154897724
H            4.00501027526854        1.04552972258004       -0.67194271323193
H            2.70370280430294        2.11640885605610       -0.09064324075683
H            3.57119569466171       -1.64392324898014        0.04562043533917
H           -1.68455817951893        3.10540795865240       -0.02840148366608
H           -2.84162997777864        2.11100425451338       -0.95456819355092
H           -2.89506600792693        2.09684176230531        0.81165431900025
H           -1.15091283773623       -3.17020045635187        0.83433913932754
H           -1.12893380169082       -3.14876003447386       -0.95395856051409
H           -2.55461720510767       -2.54204338954388       -0.06995731003991
H            1.44759507163328       -3.08960396340429       -0.03277740914498
25
 energy: 11.913625660428 xtb: 6.6.1 (8d0f1dd)
C            3.22740493873324        1.18580651879690        0.09004313522726
N            2.28743028050526        0.09628073102131        0.03949361853409
C            2.58772730926332       -1.26611350642442        0.03474065712237
N            1.44244943478315       -2.07764305200991       -0.00663169200822
C            0.41518817554128       -1.11426704663161       -0.00766236039080
C            0.90495819266942        0.20141197658123        0.01733456864199
C            0.09518695340585        1.38944968540066       -0.00315599233050
O            0.47992601510789        2.57031462158271       -0.00463880991287
N           -1.28797324472853        1.08091426073201       -0.02983435945909
C           -2.24911637269036        2.18382483633082       -0.05358071709553
C           -1.82428377549561       -0.16601741404993       -0.04407742064483
O           -3.02596949578962       -0.35453928056618       -0.06760280783709
N           -0.93981537525006       -1.27604381704427       -0.03344644836309
C           -1.46923837431526       -2.60555788667749       -0.05419507694424
H            3.71319044608665        1.24757607268123        1.07045690536647
H            4.00241538113518        1.05554007574829       -0.66954457368312
H            2.70597180526162        2.12763632318909       -0.08989805287904
H            3.57460330932589       -1.63786530994075        0.04982197362388
H           -1.70028983750852        3.12453745449475       -0.03163444503230
H           -2.86032421145762        2.13165921058458       -0.95596697540583
H           -2.91544987968015        2.12078721566725        0.80799014167002
H           -1.12987437058336       -3.14062532021589        0.83524015225069
H           -1.11318753025375       -3.11874070053595       -0.94972490252690
H           -2.55372712811161       -2.53141477523478       -0.06368438886143
H            1.54501165901815       -3.23788208473561       -0.05280821686736
25
 energy: 21.475763618833 xtb: 6.6.1 (8d0f1dd)
C            3.22539432033970        1.18592960287389        0.09098886512012
N            2.28572634131991        0.09626727872795        0.03734897993645
C            2.58391327391660       -1.27508857401018        0.03484063535892
N            1.44010186026053       -2.10458838749034       -0.00760781722372
C            0.41863984642571       -1.12489773284911       -0.01127658094004
C            0.89958906984264        0.19472936474825        0.01585431017738
C            0.09508235420264        1.38432838051108       -0.00277702379458
O            0.47462298873361        2.56516928435606       -0.00395144308793
N           -1.29830593859531        1.09239966550849       -0.02947742410835
C           -2.25777947328715        2.19541458070042       -0.05414071747437
C           -1.82642797960577       -0.15515045773669       -0.04364549137085
O           -3.02727550405048       -0.35284643505155       -0.06635168562859
N           -0.94232655536817       -1.26210657193184       -0.03368622974432
C           -1.46762938483298       -2.59368725975070       -0.05284957884512
H            3.70931629063318        1.25223331094143        1.07229502958108
H            4.00178726017064        1.05973562068907       -0.66777197934021
H            2.70547110825959        2.12988467363208       -0.08979914320126
H            3.57679368368968       -1.63259582626146        0.05207924251883
H           -1.71063911377584        3.13681469566724       -0.03273338785303
H           -2.86978390720861        2.14199953062200       -0.95629593388274
H           -2.92558766783285        2.13254354674008        0.80664119178061
H           -1.11788569114023       -3.12495406557341        0.83502283224743
H           -1.10570930126822       -3.10327059823151       -0.94823282559412
H           -2.55234219255467       -2.53065291070365       -0.05980743066193
H            1.59746861669831       -3.31858192738356       -0.05763248177510
25
 energy: 27.851904935146 xtb: 6.6.1 (8d0f1dd)
C            3.22599437357721        1.18600911889753        0.09109749375830
N            2.28679719340205        0.09635553620103        0.03612157275125
C            2.57946502278526       -1.27681661162676        0.03551839565199
N            1.43548605889122       -2.10826554055023       -0.00619274407867
C            0.41776488979799       -1.12447982349864       -0.01316826513441
C            0.89923232855510        0.19390242122007        0.01534188389871
C            0.09513118168551        1.38526859687076       -0.00255864532292
O            0.47176085951936        2.56390802904125       -0.00388662427832
N           -1.30188961248603        1.09899661144279       -0.02924097269031
C           -2.26103529501605        2.19984779697389       -0.05428200287735
C           -1.82873822369629       -0.15081968577774       -0.04330980198525
O           -3.02792796897732       -0.35390040527650       -0.06587829359374
N           -0.94351417297090       -1.25344150914415       -0.03346240192638
C           -1.46625067787581       -2.58903142340242       -0.05245304295513
H            3.70801081151158        1.25362236697108        1.07296759834506
H            4.00257895246968        1.06115356574963       -0.66708178978058
H            2.70601764583796        2.13056341219495       -0.09027488845811
H            3.57532208883605       -1.62881944895683        0.05281252509995
H           -1.71527763167023        3.14159454998080       -0.03298704501652
H           -2.87281393762027        2.14455468405171       -0.95657876356762
H           -2.92872695064392        2.13548716945212        0.80655289380407
H           -1.11318770807237       -3.11831877128897        0.83477290684585
H           -1.10229591784859       -3.09678793046013       -0.94780921906223
H           -2.55095623370501       -2.53211773964365       -0.05876336808876
H            1.62126722868631       -3.36943618067754       -0.06022348914431
25
 energy: 36.344550983317 xtb: 6.6.1 (8d0f1dd)
C            3.22786916895180        1.18785927656346        0.08979144752259
N            2.28960783060551        0.09818445345906        0.03506865674412
C            2.57137649057662       -1.27497289441800        0.04152368049577
N            1.42615858392757       -2.09940274611015        0.00326782089701
C            0.41358673555015       -1.11709198131627       -0.01590668024954
C            0.90064451466275        0.19738171085292        0.01603780362883
C            0.09491061782388        1.39063017815004       -0.00105323693338
O            0.46746058621437        2.56601299330754       -0.00543234810798
N           -1.30424456112264        1.10616357314073       -0.02834561331223
C           -2.26340128417121        2.20319220053518       -0.05411755236574
C           -1.83288537203974       -0.14705860577905       -0.04289889316393
O           -3.02951501305163       -0.35435925940079       -0.06531468378883
N           -0.94568452420186       -1.24223676660321       -0.03366945671570
C           -1.46455132743788       -2.58457089528821       -0.05272518111097
H            3.70756483353622        1.25597098767669        1.07228002962402
H            4.00441457066547        1.06302616357560       -0.66748825600486
H            2.70773513386450        2.13281067131145       -0.09230837024054
H            3.57020387961679       -1.62259453924929        0.05322751734060
H           -1.72006407799434        3.14581517854206       -0.03275551162456
H           -2.87481492299395        2.14600376968937       -0.95665221552579
H           -2.93101232580279        2.13705124821301        0.80678509559216
H           -1.10890076397333       -3.11081081013667        0.83417822577536
H           -1.09813857608907       -3.08981078879310       -0.94787308335665
H           -2.54904950358638       -2.53345666956912       -0.05904404071062
H            1.65294361144165       -3.46470765960925       -0.06954124221456
25
 energy: 31.671883784219 xtb: 6.6.1 (8d0f1dd)
C            3.23165299035840        1.19354166253575        0.08623383413874
N            2.29053894139285        0.10862031567502        0.03242117157606
C            2.53904423354794       -1.26316981456323        0.05915366244704
N            1.39796863984219       -2.07156236002832        0.03915638631804
C            0.40279170090705       -1.09247661610064       -0.02307459116172
C            0.89919585264147        0.21383617342753        0.01795636994186
C            0.09431230020500        1.40754405930305        0.00369013644641
O            0.45300064048907        2.57393040370325       -0.01038260662191
N           -1.31121851823176        1.12791559225971       -0.02635664645415
C           -2.26927218801549        2.21411244648765       -0.05432117893104
C           -1.84064784951296       -0.13541793082301       -0.04230595314637
O           -3.03123627975807       -0.35297703442492       -0.06410138169814
N           -0.95197593894247       -1.20898989240023       -0.03488008514275
C           -1.46112224990919       -2.57064368714036       -0.05241561754976
H            3.70557502261722        1.25940456246219        1.07035070088528
H            4.00700566298741        1.06619396154992       -0.66901436691704
H            2.71364118589300        2.14147000761770       -0.09572414559013
H            3.54798657130557       -1.60116883122292        0.05229339154973
H           -1.72913223514513        3.15705255584233       -0.03303165289471
H           -2.87934154182889        2.15116027772617       -0.95758897225297
H           -2.93604001096481        2.14288986207318        0.80706786225808
H           -1.09889008073656       -3.09253325739270        0.83170476735610
H           -1.08918299450737       -3.07360385360980       -0.94495118194155
H           -2.54533283555068       -2.53497137135645       -0.05830559925529
H            1.77289328588862       -3.77112844285685       -0.10654039116525
25
 energy: 25.419134933525 xtb: 6.6.1 (8d0f1dd)
C            3.23305872712074        1.19700394497483        0.08662977911327
N            2.28397524584723        0.11610266953613        0.03371308968683
C            2.49247347061626       -1.24336940002050        0.06246651051269
N            1.37171108859236       -2.02324932302411        0.05273461571370
C            0.39277228936891       -1.05752703743526       -0.01936641374812
C            0.89826288335003        0.23933073093370        0.01682380382842
C            0.09016728312976        1.43303092247362       -0.00042076514666
O            0.43808939539257        2.58599324947178       -0.01087343118689
N           -1.31055574241604        1.14810888933328       -0.02666181490637
C           -2.27226447958811        2.22339215909478       -0.05487558748782
C           -1.84365092853751       -0.12929290215046       -0.04139278989238
O           -3.03001294434319       -0.34657474120625       -0.06390720419650
N           -0.95409644678031       -1.18201873156081       -0.02904174439649
C           -1.45710097845754       -2.55963270244961       -0.05048610310154
H            3.70441936235413        1.26062155812921        1.06998379160093
H            4.00616553457388        1.06575395379700       -0.66822048975923
H            2.72041269158409        2.14894823686426       -0.09695643987688
H            3.51126923818082       -1.58270873628292        0.05509755971854
H           -1.73756388654304        3.16830350347767       -0.03434824852902
H           -2.88181463062287        2.15456474046099       -0.95816712889804
H           -2.93865789651514        2.14730055113891        0.80647264587462
H           -1.08942433403610       -3.07914763415921        0.82984642079376
H           -1.07952158356452       -3.05967869860769       -0.94017712975613
H           -2.54146226548364       -2.53450622053416       -0.05729407599266
H            1.90556321174963       -4.10172019351114       -0.13454493777342
25
 energy: 20.784598986179 xtb: 6.6.1 (8d0f1dd)
C            3.23207599456932        1.20134801644112        0.08996326727600
N            2.27056648219955        0.12470189138546        0.03837608841157
C            2.45799973131581       -1.20993579546946        0.04706485352588
N            1.35943807904118       -1.93899120760502        0.03078522486507
C            0.38583918720345       -1.00704081001687       -0.00286390203414
C            0.89847265333779        0.28201858803741        0.01174325179897
C            0.07955349662066        1.46548875660329       -0.00969122195380
O            0.43296037059630        2.61757124692469       -0.00726357647085
N           -1.29749377146209        1.14804329805961       -0.02896858901065
C           -2.26901364764988        2.22158555251240       -0.05531577998849
C           -1.84008153460928       -0.13688634181549       -0.04092220179273
O           -3.03155897139007       -0.32744969582817       -0.06613112342300
N           -0.95320625161052       -1.18513909753173       -0.01835811176364
C           -1.45505160072676       -2.56147024934001       -0.04841758402713
H            3.70645346499362        1.25693343943458        1.07103075093765
H            4.00294687887281        1.06067192955106       -0.66686829018263
H            2.72480236141720        2.15352223884608       -0.09475710591990
H            3.47339163767505       -1.58178396875781        0.06331147054486
H           -1.73758095325479        3.16947385948763       -0.03507685406904
H           -2.87884474750608        2.15234585972584       -0.95796215420012
H           -2.93506527380345        2.14457786844952        0.80573276000073
H           -1.09115387435376       -3.08506382246077        0.83109174883999
H           -1.07858548542460       -3.06039908223398       -0.93859998362730
H           -2.53979579490389       -2.52780736478964       -0.05766452637819
H            1.99514587382487       -4.38728632086574       -0.13320449916455
25
 energy: 20.126584848021 xtb: 6.6.1 (8d0f1dd)
C            3.23533084788905        1.21657006203616        0.08740642548998
N            2.26573124896416        0.14594827036645        0.04008035636538
C            2.45436325936118       -1.18288370599456        0.04050661699166
N            1.34960621536870       -1.88908292295199        0.02424516888679
C            0.37740259929720       -0.96551179322191        0.00256819927968
C            0.89771869160572        0.32063199800152        0.01475485397200
C            0.06620699847776        1.49074731771302       -0.00398064100851
O            0.42743301296810        2.64855813709218       -0.00375045332700
N           -1.29186251314540        1.14829121107961       -0.02857660600502
C           -2.27071870650155        2.22185343914246       -0.05509091106118
C           -1.83992787024119       -0.13723123136910       -0.04371024602008
O           -3.03722022963801       -0.30495195833329       -0.07005699248476
N           -0.95956577369854       -1.18845566382970       -0.02167602470340
C           -1.45305540662895       -2.55878603677568       -0.05056748631579
H            3.71028406128113        1.26060988602431        1.06910568199930
H            4.00511799986862        1.06332905893920       -0.66947914009023
H            2.73176144780432        2.16755855685919       -0.09606793060571
H            3.45937993514981       -1.58082222377610        0.05964159206810
H           -1.73833296358012        3.16994767924782       -0.03302669198036
H           -2.87806934921763        2.15059621119001       -0.95844776372254
H           -2.93439615131796        2.14023247335511        0.80645515272603
H           -1.09258302490450       -3.08730401081172        0.82954718869479
H           -1.07845142031664       -3.06128689529858       -0.94045292719671
H           -2.53863663752917       -2.52184901625475       -0.06018461197446
H            2.04469803365635       -4.67768005368564       -0.11220889778341
25
 energy: 20.004429519345 xtb: 6.6.1 (8d0f1dd)
C            3.23767023368539        1.22913312950844        0.08960863196001
N            2.26337701016370        0.16582997765775        0.04363479326125
C            2.46371168715988       -1.16486390471347        0.03885465117224
N            1.34795815301868       -1.86851593831926        0.01369939182251
C            0.37416301039642       -0.94431465186176        0.00275654469532
C            0.89723351340483        0.34062152054738        0.01799423234016
C            0.05806837541076        1.50277751490820       -0.00551192330654
O            0.42542473090678        2.66280410021324       -0.00667763183564
N           -1.29075931403734        1.14888250217943       -0.02972777062218
C           -2.27299765850382        2.22298678679570       -0.05531614977332
C           -1.83847537957956       -0.13547564044358       -0.04249214944945
O           -3.03792459901413       -0.29615673525053       -0.06774870034110
N           -0.96068217576054       -1.19139548278069       -0.02554977546769
C           -1.44927986181700       -2.55551748463515       -0.05037882073500
H            3.71406070142378        1.26598222138629        1.07147248209029
H            4.00540243485657        1.06638266487281       -0.66754442155215
H            2.73701150683110        2.17959084668167       -0.09383036836826
H            3.45732815478464       -1.57786486058518        0.05546850667531
H           -1.73805601756499        3.16966958523011       -0.03478768105781
H           -2.87934686460459        2.14924075021814       -0.95814541068929
H           -2.93404661248079        2.14037668047450        0.80729581569324
H           -1.09340976192598       -3.08847770655307        0.83047063791389
H           -1.07870489546643       -3.06411420904421       -0.93953789023439
H           -2.53595006467138       -2.51758282834895       -0.05974680812502
H            2.04043799835651       -4.85097004939380       -0.10722627387179
25
 energy: 19.951439818861 xtb: 6.6.1 (8d0f1dd)
C            3.23867429838619        1.23309248351229        0.08850889638918
N            2.26181534588926        0.17482464359780        0.04434328370257
C            2.47174517127446       -1.15597732015279        0.03808688079305
N            1.35488917725319       -1.86252533629515        0.01204371247694
C            0.37599708668083       -0.94108716314774        0.00257919678520
C            0.89718091568287        0.34414553134067        0.02138287916365
C            0.05575742101647        1.50481209415170       -0.00248188062980
O            0.42544010512652        2.66492527181251       -0.00444673103094
N           -1.29104097826471        1.14836889486630       -0.02953352221018
C           -2.27386708639534        2.22292441455294       -0.05526717385777
C           -1.83664155783313       -0.13489965063498       -0.04354281104544
O           -3.03609653309616       -0.29739343427565       -0.06888134399779
N           -0.95775197083544       -1.19398333903706       -0.02800360079912
C           -1.44728540755372       -2.55449011524295       -0.05115061286129
H            3.71623575211424        1.26794226011212        1.06993941398972
H            4.00499534556082        1.06663442449736       -0.66918998452275
H            2.73984036346093        2.18403028000646       -0.09497699681717
H            3.45941892081123       -1.57543382069745        0.05345204536505
H           -1.73786463213184        3.16893286857320       -0.03335259617944
H           -2.87880048095584        2.14983887244482       -0.95874138371796
H           -2.93512548371044        2.13941441862034        0.80673642742875
H           -1.09428315371306       -3.08950284805042        0.83018706551887
H           -1.07831327517388       -3.06575314701752       -0.94010472962654
H           -2.53475722929463       -2.51610159361980       -0.06110828476258
H            2.01205219067364       -4.89370990117302       -0.09944423735966
25
 energy: 19.885013065900 xtb: 6.6.1 (8d0f1dd)
C            3.23977322288325        1.23768626085492        0.09028137179030
N            2.26049847234626        0.18561452803661        0.04500868976943
C            2.48460325488468       -1.14421379565239        0.03679670024280
N            1.37200277624141       -1.85826293506923        0.00622636938342
C            0.38117042542286       -0.94424755001888        0.00068702136667
C            0.89730332880754        0.34336065118842        0.02294165458428
C            0.05512436709230        1.50407953951493       -0.00397706187829
O            0.42640156040769        2.66410451434001       -0.00723170821989
N           -1.29147579539039        1.14693698543669       -0.03048752963436
C           -2.27410981049599        2.22215863579694       -0.05543136184689
C           -1.83363548813342       -0.13429392756330       -0.04267665061441
O           -3.03268025215621       -0.30187628597704       -0.06646408583724
N           -0.95234734444363       -1.19789687588584       -0.03003742290388
C           -1.44566949723308       -2.55437532572892       -0.05081636463140
H            3.71673261955894        1.27029721120323        1.07214375500578
H            4.00581549102647        1.06853616559285       -0.66685423498026
H            2.74328513967577        2.18966009233492       -0.09341960367762
H            3.46574069399013       -1.57114779258416        0.05187409540445
H           -1.73715981865623        3.16771143687030       -0.03467699359810
H           -2.87978869359012        2.14893606955595       -0.95817599647006
H           -2.93391130879748        2.13940764326407        0.80752979623267
H           -1.09451844534766       -3.09128980941095        0.83072979424923
H           -1.07972396103533       -3.06839339509091       -0.94003431323767
H           -2.53390128748765       -2.51513659068677       -0.06005137425018
H            1.95268465540236       -4.91832666157743       -0.09685063405423
25
 energy: 19.817004000087 xtb: 6.6.1 (8d0f1dd)
C            3.24044789721000        1.23946202350313        0.08838389168967
N            2.26115150680250        0.18872466692406        0.04491331353411
C            2.49005062246957       -1.13969714745093        0.03781137351943
N            1.38430562030863       -1.85918919170073        0.00890543896784
C            0.38515404680764       -0.95086630146224        0.00132031890825
C            0.89720121310056        0.33954602041875        0.02489918845121
C            0.05661171249254        1.50154852218915       -0.00070542569551
O            0.42674948916107        2.66168824652504       -0.00397198698058
N           -1.29179432488126        1.14615989116725       -0.02958335199371
C           -2.27387147106868        2.22142872120444       -0.05523383715932
C           -1.83207862762062       -0.13422244195015       -0.04370257228462
O           -3.03072139395822       -0.30520967712974       -0.06871211079274
N           -0.94949713558828       -1.19888120618109       -0.03001181677347
C           -1.44543071787418       -2.55521862766961       -0.05170191737890
H            3.71837309758647        1.27237492427951        1.06971614519692
H            4.00526106078925        1.06897644216438       -0.66976060765409
H            2.74417890641801        2.19161662459576       -0.09560975154996
H            3.47051013348693       -1.56831778310256        0.05181974073998
H           -1.73729983390339        3.16724369149327       -0.03275463056977
H           -2.87839708154034        2.14948215898316       -0.95899051588686
H           -2.93538336493503        2.13846378617124        0.80657938527864
H           -1.09522393773138       -3.09189743678525        0.83012986394132
H           -1.07858103007513       -3.06884801648251       -0.94083077172395
H           -2.53344946359616       -2.51534655568148       -0.06205990256905
H            1.91394738111195       -4.90999254527884       -0.09381554902027
25
 energy: 19.774972437301 xtb: 6.6.1 (8d0f1dd)
C            3.24046301763792        1.23994437020531        0.09041005270205
N            2.26241817828936        0.18798278307458        0.04426760872675
C            2.49021954014783       -1.13935531037071        0.03761090703104
N            1.38890858060393       -1.86070808504782        0.00821716397299
C            0.38669378952184       -0.95477815104739        0.00029591562145
C            0.89704234984869        0.33724219819526        0.02202537580426
C            0.05817664139546        1.49996577417156       -0.00434299375498
O            0.42677863406110        2.66034355549131       -0.00754034776202
N           -1.29171012090316        1.14599602412741       -0.03037641481883
C           -2.27332449614575        2.22107450062606       -0.05534737218651
C           -1.83176718560339       -0.13464365375064       -0.04272748881522
O           -3.03036829461917       -0.30613959650506       -0.06661106535197
N           -0.94914285848450       -1.19828965496324       -0.02900568195739
C           -1.44599105811524       -2.55605232604243       -0.05073420257592
H            3.71676481643331        1.27182882579683        1.07255299308676
H            4.00640490106114        1.07040751480871       -0.66679052167876
H            2.74366420422300        2.19182788273975       -0.09338628520185
H            3.47249562346208       -1.56659149613250        0.05241501236582
H           -1.73701836197176        3.16714587381115       -0.03462545242668
H           -2.87962892967840        2.14862762968275       -0.95806674779550
H           -2.93368385075482        2.13912305414764        0.80761600766839
H           -1.09410548742045       -3.09174907128090        0.83079907393048
H           -1.07960238498962       -3.06868396336397       -0.94018996094536
H           -2.53362198579852       -2.51575945359378       -0.05988361674294
H            1.90214904277158       -4.89973043603583       -0.09954804670149
25
 energy: 19.764999333160 xtb: 6.6.1 (8d0f1dd)
C            3.24052712540711        1.23994424396630        0.08897940400666
N            2.26311736226140        0.18696950115389        0.04414532537541
C            2.48915149927628       -1.13999294276153        0.03877157900628
N            1.38911239717200       -1.86148575380804        0.01116154657392
C            0.38681032958288       -0.95567512856610        0.00124616523523
C            0.89683391252424        0.33676321239115        0.02242000642905
C            0.05868389437645        1.49962996348326       -0.00243697290045
O            0.42656899626397        2.66014118481330       -0.00524617330710
N           -1.29171958605988        1.14620603365069       -0.02957095236245
C           -2.27325880146722        2.22108028718126       -0.05524462954922
C           -1.83184331667581       -0.13493014754179       -0.04311029276280
O           -3.03049570295411       -0.30588515133712       -0.06810818853159
N           -0.94948900520831       -1.19756374939492       -0.02833115823598
C           -1.44620371349676       -2.55629055975172       -0.05128773817538
H            3.71756729303961        1.27234494973873        1.07069345845823
H            4.00591444224641        1.07007325884608       -0.66882652282856
H            2.74314774464764        2.19137518155602       -0.09496133854138
H            3.47269916128302       -1.56590306066216        0.05325739900311
H           -1.73725267888272        3.16730720871239       -0.03356281599583
H           -2.87870635348689        2.14899755804660       -0.95863666935683
H           -2.93470151674847        2.13883311893088        0.80694202195113
H           -1.09453680011957       -3.09163326108108        0.83027664154520
H           -1.07868143542362       -3.06805882097406       -0.94063363865657
H           -2.53364965341126       -2.51595913037127       -0.06121876983267
H            1.90261871082604       -4.89725920747673       -0.09968377435286
25
 energy: 19.765012457759 xtb: 6.6.1 (8d0f1dd)
C            3.24051354676724        1.24002358294188        0.08960726186812
N            2.26339453646680        0.18667849146256        0.04386363482742
C            2.48862251027447       -1.14015160659834        0.03858039241704
N            1.38859339577464       -1.86142887277634        0.01145877558605
C            0.38665936303540       -0.95533992134886        0.00096579531111
C            0.89670714870121        0.33708188408035        0.02132034190720
C            0.05873887633039        1.49981961223658       -0.00361173100584
O            0.42647110714812        2.66038838309646       -0.00625688758329
N           -1.29169639719623        1.14635887565608       -0.02993525833628
C           -2.27325195890835        2.22111949173246       -0.05526141217702
C           -1.83187396986091       -0.13520711057433       -0.04305906183852
O           -3.03063517468533       -0.30549337622908       -0.06765820808574
N           -0.94971194221732       -1.19726789668733       -0.02809982232663
C           -1.44623706793008       -2.55635330372425       -0.05089880845252
H            3.71713336487556        1.27185492712594        1.07154603650971
H            4.00626820209398        1.07043591442856       -0.66787656248123
H            2.74303924374015        2.19133630693631       -0.09409402914186
H            3.47258136777326       -1.56554829898062        0.05317533890218
H           -1.73721608493080        3.16733611992418       -0.03397292318669
H           -2.87914049629598        2.14889185229034       -0.95835269504104
H           -2.93425442640574        2.13894322024744        0.80726186378169
H           -1.09419281790919       -3.09146026002409        0.83063324995886
H           -1.07892895885931       -3.06802654787704       -0.94026651950724
H           -2.53367504340714       -2.51596789864402       -0.06050303976978
H            1.90430598059760       -4.89899477995080       -0.10153181994112
