  72
        -99.35614630
 N         -1.3725223949        3.4809350986        1.6572933953
 C         -1.7778678264        2.4794199691        0.8745885576
 C         -3.3449102222        2.2073280374        0.7184627201
 C         -3.6881403628        0.7634228314        0.5787625795
 C         -4.5183092856        0.3840654781       -0.4769061882
 C         -4.8907995002       -0.9383799670       -0.6571109934
 O         -5.6916952468       -1.3967668842       -1.6365289462
 C         -6.2793637763       -0.4810984862       -2.5322338978
 C         -4.4055267417       -1.9284800620        0.2443916472
 O         -4.8043179534       -3.1873020928       -0.0146172243
 C         -4.4183568791       -4.2267661846        0.8545873167
 C         -3.5803249921       -1.5386381930        1.2899210331
 C         -3.2282904684       -0.2064253442        1.4577836041
 C         -2.5753694850        2.8061765618       -0.3910316189
 C         -1.3021783946        0.3330725899       -2.3181702128
 C         -0.1155805260        0.5146803366       -1.7221483506
 N          0.4208863249       -0.2445897710       -0.7282223908
 C          1.8019122984       -0.0552352824       -0.3715740402
 C          2.7660397326       -0.7972028680       -1.3240937495
 C          4.1923930352       -0.5378660872       -0.9408126604
 C          4.7825262827        0.6883730153       -1.2225933158
 C          6.0891596753        0.9529424893       -0.8499842094
 C          6.8437161912       -0.0079198358       -0.1878047784
 O          8.1151165470        0.1362346027        0.2199174328
 C          8.7864475128        1.3518911020       -0.0214130192
 C          6.2525342752       -1.2725881788        0.0970407375
 O          7.0564905526       -2.1496536276        0.7235149882
 C          6.5841816700       -3.4457446300        1.0070797848
 C          4.9367332306       -1.5080419531       -0.2767877836
 C         -0.2219879019       -1.4721517921       -0.3340253355
 C         -4.3167495063        3.0006205437        1.5792810328
 C         -4.1602803608        2.6234111091        3.0527242704
 C         -4.1939531536        4.5096555998        1.4112966124
 H         -4.8755015733        1.1473505608       -1.1494618469
 H         -6.8970587829        0.2523962144       -2.0057316894
 H         -6.9090505807       -1.0784072131       -3.1887584705
 H         -5.5231034551        0.0379954959       -3.1290348882
 H         -4.7762384419       -4.0511639884        1.8731798419
 H         -4.8849851957       -5.1263639752        0.4581876168
 H         -3.3315998324       -4.3571259266        0.8659626743
 H         -3.2077887869       -2.2700488071        1.9888606103
 H         -2.5843171879        0.0677017761        2.2789904284
 H         -2.3513747055        2.1753479802       -1.2393314024
 H         -2.6818297572        3.8538143800       -0.6101443871
 H         -1.9590702051       -0.4858850798       -2.0888269745
 H         -1.6153436703        0.9982606993       -3.1012473001
 H         -1.2046218416        1.5485908172        0.8295391881
 H          0.4963201835        1.3612541184       -2.0035995567
 H          1.9576692621       -0.4135556694        0.6494143328
 H          2.0309833117        1.0130955856       -0.3947525894
 H          2.5833479886       -0.4438443718       -2.3411869661
 H          2.5532828479       -1.8661998271       -1.2880532612
 H          4.2226761248        1.4464525385       -1.7485402368
 H          6.5186828758        1.9129479585       -1.0851515426
 H          8.2877153626        2.1893129342        0.4755567815
 H          8.8679652123        1.5578636541       -1.0926727336
 H          9.7821921742        1.2237243415        0.3985867537
 H          7.4181574669       -3.9639958343        1.4764998840
 H          5.7374306944       -3.4214258610        1.7000366289
 H          6.2960562579       -3.9753012441        0.0939364932
 H          4.4809765889       -2.4621423149       -0.0632830972
 H         -0.2172196307       -2.2098139940       -1.1427788343
 H         -1.2587477377       -1.2743613513       -0.0556726850
 H          0.2953694642       -1.8900579740        0.5267635717
 H         -5.3205246862        2.6905689669        1.2563215785
 H         -3.1685263532        2.9125377849        3.3944421867
 H         -4.2960215193        1.5550394379        3.2024561083
 H         -4.8979169201        3.1485807921        3.6526631228
 H         -3.1786986848        4.8222498984        1.6453239943
 H         -4.4454585107        4.8195346559        0.4001015936
 H         -4.8777305237        5.0061456718        2.0948328637
 H         -0.6051234398        3.2697654423        2.2802556004
