  25
        -42.12112613
 C          2.6195158209        1.6207587172       -0.3230225223
 N          2.4769145948        0.2174885902       -0.5292382133
 C          2.4639571462       -0.8923639318        0.1424335827
 N          1.3119552460       -1.5939655548        0.2656164721
 C          0.1584892299       -0.8990673594        0.0829783836
 C          1.3583052652        1.0418119460       -0.8559540865
 C          0.2327449077        0.6312761917        0.1268775039
 O          0.5141603222        0.7766481061        1.3841707397
 N         -1.1378215309        0.9564328518       -0.3015571552
 C         -1.6246008491        2.3174438991       -0.3534471323
 C         -1.9536101756       -0.1006361125       -0.1733481604
 O         -3.1291513991       -0.2197772288       -0.2808860004
 N         -1.0841689649       -1.2800932273        0.1100828546
 C         -1.6739447857       -2.5462277749        0.4521104373
 H          2.6238669002        1.9494731082        0.7128577449
 H          3.2935404678        2.1367654045       -0.9941051608
 H          1.0520650117        1.1602688152       -1.8873776587
 H          3.3783622149       -1.2931741239        0.5606778460
 H         -1.1704362724        2.8390528409       -1.1955083508
 H         -2.7052498934        2.2900684108       -0.4741302701
 H         -1.3708503903        2.8319786645        0.5746733798
 H         -1.4895478159       -2.7890908498        1.4996385982
 H         -1.2862630961       -3.3394726076       -0.1877179589
 H         -2.7488388076       -2.4432981055        0.2939612047
 H          1.3204644516       -2.5338172564        0.6492234220
