  25
        -42.13628236
 C          3.4514237336        4.0947052445        0.0207440706
 N          2.2542150037       -0.5591189061        0.0003660739
 C          2.3135829433       -1.8562212912        0.0017295433
 N          1.0690984609       -2.4298375366       -0.0024735322
 C          0.1794285770       -1.4057832105       -0.0087620584
 C          0.9411371711       -0.2289953059       -0.0059730137
 C          0.3001244610        1.0660788037       -0.0065524475
 O          0.8508612866        2.1443170594       -0.0117350533
 N         -1.0931688624        0.9543884243       -0.0000404487
 C         -1.8720637733        2.1830063462        0.0086409697
 C         -1.8522226740       -0.2034329747        0.0056269567
 O         -3.0547263919       -0.1743140939        0.0194766125
 N         -1.1640873569       -1.4268895288       -0.0079005454
 C         -1.9241752227       -2.6583706478       -0.0166809757
 H          3.8005744595        4.5053427273        0.9481027426
 H          4.0082693760        4.2693787739       -0.8797658859
 H          2.5418922931        3.5160161307       -0.0090618125
 H          3.2215329919       -2.4248436727        0.0088730205
 H         -1.1842081775        3.0238905479       -0.0397135557
 H         -2.5507929273        2.1961544452       -0.8445876683
 H         -2.4709188740        2.2366278793        0.9186800313
 H         -1.7267435232       -3.2358621419        0.8869776058
 H         -1.6754100857       -3.2512736154       -0.8977705197
 H         -2.9806340976       -2.3948933682       -0.0475883705
 H          0.8670002908       -3.4181683919       -0.0127727268
