  25
        -42.18197389
 C          3.1266672472        1.0813503958        0.4771763863
 N          2.1831596883        0.0689535637        0.1146696640
 C          2.4106761666       -1.3071798068        0.1565875485
 N          1.4120167037       -2.0103126356       -0.1916197424
 C          0.3728459949       -1.1049589904       -0.6086844608
 C          0.9297812472        0.2428959870       -0.2995399667
 C          0.0797421660        1.4109925910       -0.1834339755
 O          0.4818378737        2.5520521220       -0.0998869043
 N         -1.2631449014        1.0708878524       -0.1313348416
 C         -2.2291507205        2.1474175877       -0.0463105271
 C         -1.7820917735       -0.2178249858        0.1052551976
 O         -2.9382097173       -0.3536683736        0.4100179043
 N         -0.9193556956       -1.2805999211        0.0014588089
 C         -1.4228814295       -2.6226974489        0.1478494254
 H          3.6549291886        0.7893886273        1.3850027287
 H          3.8605067644        1.2096823616       -0.3232928254
 H          2.6079216130        2.0296644917        0.6242705527
 H          3.3524741958       -1.7142906395        0.4780156660
 H         -1.7329205856        3.0794471065       -0.3084300528
 H         -3.0561635942        1.9407910244       -0.7266783968
 H         -2.6405431070        2.2183720469        0.9632771897
 H         -0.6816379189       -3.2235373395        0.6745683851
 H         -1.6104356399       -3.0808572467       -0.8272880796
 H         -2.3558253434       -2.5806073705        0.7071980322
 H          0.2590748368       -1.2627192999       -1.7031941325
