  25
        -42.09935473
 C          3.1630322870        1.0901967920        0.0413768788
 N          2.2973282670        0.0801649165        0.0213688917
 C          2.5557847967       -1.2409526742        0.2166024284
 N          1.4017574229       -1.9380268459        0.1640233732
 C          0.3751271262       -1.0579191448       -0.0767752412
 C          0.9346654636        0.1920420372       -0.1763396593
 C          0.1071617773        1.4283599498       -0.4131603583
 O          0.5420517290        2.5565186880       -0.0150195336
 N         -1.2923466860        1.0520570137        0.0047514549
 C         -2.1671138108        2.1525133632        0.3167724182
 C         -1.8464883290       -0.1951436082       -0.0129150791
 O         -3.0219989282       -0.3992457543        0.1135608224
 N         -0.9483436845       -1.2987420349       -0.1343785368
 C         -1.4932449566       -2.6395403053       -0.1051628814
 H          4.2050046252        0.8958242613        0.2117777827
 H         -0.0269680402        1.4606072204       -1.5453467302
 H          2.7724951851        2.0879639374       -0.0775507023
 H          3.5273599546       -1.6571465329        0.3880582133
 H         -1.5444851875        3.0310050539        0.4808482271
 H         -2.8756422418        2.3358942589       -0.4947208220
 H         -2.7454691541        1.9203256311        1.2120816508
 H         -1.2859044783       -3.1297517992        0.8478473541
 H         -1.0869322750       -3.2284238585       -0.9272704987
 H         -2.5733173273       -2.5537029504       -0.2211132250
 H          1.3221231507       -2.9375925356        0.2839098105
