  25
        -42.10958423
 C          3.1483200746        1.0834213647        0.0010266088
 N          2.2806638564        0.0794798722       -0.0009039327
 C          2.5418644807       -1.2492330358       -0.0101804675
 N          1.3750336120       -1.9506039378       -0.0083844835
 C          0.3446617810       -1.0633474481        0.0011214991
 C          0.8897752911        0.2092172140        0.0062548515
 C          0.0699252793        1.3982390283        0.0070000075
 O          0.4716504477        2.5368219401        0.0163960680
 N         -1.2884250639        1.0718527113       -0.0080622192
 C         -2.2413089205        2.1724018773       -0.0132503689
 C         -1.8581661711       -0.1869500022       -0.0013096431
 O         -3.0448862835       -0.3565262106       -0.0000488459
 N         -0.9776075719       -1.2928960527        0.0007892432
 C         -1.5326329785       -2.6307850010        0.0177212361
 H          4.2258574937        0.8906653427       -0.0152352171
 H          5.9846145034        0.8677959870       -0.1108283095
 H          2.7655141642        2.0890862529        0.0056510387
 H          3.5181700260       -1.6889270199       -0.0175990630
 H         -1.6826165127        3.1048550320       -0.0048413017
 H         -2.8688867371        2.1142017493       -0.9027899800
 H         -2.8859477128        2.1079724987        0.8633692368
 H         -1.2327845112       -3.1573843038        0.9240176252
 H         -1.2151604088       -3.1882647704       -0.8636236259
 H         -2.6180735483       -2.5351473707        0.0054824688
 H          1.3089562746       -2.9579355416       -0.0128465911
