  25
        -42.13182811
 C          3.2534342624        1.1192882366        0.0169966246
 N          2.2670351027        0.0769228835       -0.0009888315
 C          2.4838044287       -1.2605221601       -0.0069624641
 N          1.3725815729       -1.9626683880       -0.0069313287
 C          0.3725403159       -1.0568232543        0.0000728501
 C          0.9146282317        0.2388336357        0.0045793106
 C          0.0798746355        1.4158383846       -0.0026210401
 O          0.4696363837        2.5614617728       -0.0132056284
 N         -1.2746763516        1.0820661684        0.0004231704
 C         -2.2371957163        2.1697024833       -0.0024928841
 C         -1.8314508049       -0.1911157376        0.0037147331
 O         -3.0239319833       -0.3534804178        0.0072876658
 N         -0.9544071811       -1.2809094378        0.0014342010
 C         -1.4836863897       -2.6228722331       -0.0006809657
 H          3.7627518179        1.1414062946        0.9827933672
 H          3.9966116079        0.9471237223       -0.7619439963
 H          2.7637831946        2.0783244828       -0.1455587064
 H          3.4641568248       -1.6951180190       -0.0121850480
 H         -1.6920674148        3.1113524450        0.0043187117
 H         -2.8705166206        2.1042778617       -0.8890481767
 H         -2.8826380319        2.0971620113        0.8746031993
 H         -1.1289883564       -3.1594873997        0.8807882823
 H         -1.1450789206       -3.1509684128       -0.8936512529
 H         -2.5710941342       -2.5658735639        0.0089641375
 H          0.7538603543       -4.7517873827       -0.0211083870
