25
 energy: 114.217810064250 xtb: 6.6.1 (8d0f1dd)
C            3.29888314654709        1.15114489743331        0.12536928236218
N            2.34116759110361        0.07008645538963        0.07127202449343
C            2.69365930156739       -1.21302422250954        0.07561114006241
N            1.59281106563211       -1.99378599310044        0.06737362673236
C            0.43669169864738       -1.16142948158846        0.05771519385179
C            0.96981590920010        0.16057297110744        0.07969721614677
C            0.12602272772327        1.37056913663271        0.03139785458022
O            0.65620128743323        2.48365568445217       -0.06618423116085
N           -1.25510838370023        1.10168653673303        0.09882856041616
C           -2.08271006883421        2.27863704198171        0.18052514265021
C           -3.27669496776446        0.52287878195442       -1.16942650304808
O           -3.87034152836761       -0.40639836100813       -0.89057245794716
N           -0.79752640236234       -1.45307173640762        0.02643196321170
C           -1.29773829686739       -2.78109986174966        0.03064026408111
H            3.79161848140609        1.16846745468178        1.10068062629833
H            4.06215016308743        1.01125360288177       -0.64280650612523
H            2.78228733167634        2.09628654246008       -0.03018540677436
H            3.70190734170056       -1.58162371381294        0.07616690949492
H           -1.82053103010538        3.08368989391789       -0.52258386924683
H           -3.13997935205881        2.05420269212606       -0.00978132896820
H           -1.96653946270346        2.64914374418411        1.19834655814219
H           -0.89386877715765       -3.32244147696537        0.88797820024042
H           -1.02935422055770       -3.31146725117955       -0.88952036192421
H           -2.38506413270680       -2.74636022708932        0.10299892989469
H            1.58335474826547       -2.99958576371218        0.04827209291703
