25
 energy: 112.468386767555 xtb: 6.6.1 (8d0f1dd)
C            3.30427613958615        1.15408043679083        0.12205576418918
N            2.35187333763755        0.06519849809870        0.07240643213321
C            2.70879139068092       -1.21660295627563        0.06788123291148
N            1.60864196256676       -1.99562236619693        0.07226846013644
C            0.44981088910516       -1.16564101789578        0.06297841671681
C            0.98013083531381        0.16280527602854        0.08336626798022
C            0.15364144558688        1.38626050212391        0.04396029804894
O            0.68576427165853        2.49569250170123       -0.07498796514860
N           -1.21246658001837        1.11070941115230        0.12010550345808
C           -2.06610614984848        2.26708816500416        0.16468609755148
C           -3.41192935567491        0.52947460550503       -1.24013063264283
O           -3.96836094534478       -0.39286276048500       -0.88023972375055
N           -0.78043789048729       -1.47335726858471        0.02595721313756
C           -1.29724035058773       -2.79382964890436        0.03370533184923
H            3.79498477294946        1.18055637109375        1.09868151094000
H            4.06767963062865        1.01727710418393       -0.64691599631547
H            2.77977362149045        2.09710079780948       -0.03762148664659
H            3.71865017946202       -1.58077427308030        0.07558578675206
H           -1.78809593145479        3.10046431154543       -0.49602343576770
H           -3.11574437049678        2.04350428505239       -0.09489384827629
H           -1.97741029740793        2.64572136415793        1.17815549261836
H           -0.90690395957743       -3.34536592217652        0.89143468822501
H           -1.02948193054327       -3.32727235678877       -0.88610938110222
H           -2.38670399278938       -2.72700506660261        0.09523946117651
H            1.59828269979434       -3.00122479220230        0.04615936544425
