  25
        -42.17514604
 C          3.5558942361        0.2419957618        0.4799433524
 N          2.4467609063       -0.6219443660        0.1989981740
 C          2.3856718464       -1.9358891604        0.3823119754
 N          1.1761240681       -2.4025795007        0.0241350690
 C          0.3625629969       -1.3543068400       -0.4246162125
 C          1.2145142013       -0.1780478475       -0.3045732698
 C          0.8915167275        1.0902994080       -0.5630717418
 O          0.5714118693        2.1799888501       -0.8149256333
 N         -2.8606590101        1.7887655528        0.3329718742
 C         -3.8342349370        2.7591329058        0.0576500037
 C         -1.9535180215        1.3405177973        0.9454095499
 O         -1.0635937952        0.7507659463        1.4057452109
 N         -0.8307548154       -1.3735806523       -0.8510897503
 C         -1.6807545601       -2.5022484203       -0.9638216880
 H          3.3212589971        0.9013719596        1.3189008975
 H          4.4310951376       -0.3540961519        0.7298417759
 H          3.7785193915        0.8600221633       -0.3914980097
 H          3.1890056622       -2.5398374728        0.7573699389
 H         -3.3841534448        3.7520207129       -0.0152721368
 H         -4.2976626118        2.5048179230       -0.8966913974
 H         -4.6006768591        2.7644177224        0.8363807267
 H         -1.4436008879       -3.3182847109       -0.2727983842
 H         -1.6451412940       -2.8811001118       -1.9894223295
 H         -2.7003409391       -2.1632371488       -0.7750897085
 H          0.8957408233       -3.3693343931        0.0756350503
