25
 energy: -42.130094944288 gnorm: 0.006056627711 xtb: 6.6.1 (8d0f1dd)
C            3.28988928833941        1.01165477690521        0.21546189488071
N            2.40595925119502        0.01777756237365        0.15623718470130
C            2.62275414372529       -1.30249783878147        0.39255721078592
N            1.45687783642270       -1.97906566337958        0.28343746631889
C            0.47038420762986       -1.08247951753853       -0.03447666633675
C            1.06277779085196        0.15209380975268       -0.13588881639228
C            0.28265178854969        1.41169784366898       -0.42882948528349
O            0.71248146909393        2.49367845050675        0.11823152717802
N           -1.15029250722902        1.06460406881451       -0.09818769762490
C           -2.01099945458480        2.20152866201531        0.10643322204749
C           -1.72589283995795       -0.16734571380959       -0.11882647347662
O           -2.91583773146402       -0.34143788463890       -0.06022647063577
N           -0.85637762785637       -1.29289316383186       -0.16664385924554
C           -1.43499543022425       -2.61819153597045       -0.16555045640115
H            4.31470282185402        0.79922153052019        0.45284476800193
H            0.24838421778726        1.51191602160728       -1.55914194560791
H            2.92710027114860        2.01572363030500        0.07041218556882
H            3.57286474773709       -1.73778871347927        0.62558298528046
H           -1.39710200849019        3.00803236353486        0.51084410659208
H           -2.45817759802083        2.53153166977172       -0.83604184449821
H           -2.81524056731796        1.93537410657308        0.79059880512042
H           -1.30107817936054       -3.10745103875585        0.80150377093165
H           -0.99005085643888       -3.22404605423500       -0.95524685985257
H           -2.50336436287986       -2.50899444464597       -0.35126566304264
H            1.35301284358757       -2.97440438568394        0.41735272889004
