72
 energy: 3.821678757017 xtb: 6.6.1 (8d0f1dd)
N           -1.56606753060559        2.94678259404103        2.19851320639223
C           -1.63019284404283        2.12587618102136        1.24027698996906
C           -2.79000485317092        1.99378514963549        0.28769838449239
C           -3.34249044919816        0.55994436724466        0.35335560646001
C           -4.37152218875641        0.17350346545271       -0.50509840885064
C           -4.91362721591721       -1.09341820214485       -0.46809193257200
O           -5.89511953772582       -1.54988610351564       -1.29727899018944
C           -6.48466616277739       -0.65051361794326       -2.19675990311208
C           -4.44341100791259       -2.03404107243391        0.47209019890695
O           -5.02131812923831       -3.26459834844225        0.40707706359555
C           -4.65274342180078       -4.22653242966757        1.35954983011193
C           -3.46661393056294       -1.64240047249859        1.36443093185581
C           -2.93690784111832       -0.35736343727132        1.31197473601685
C           -2.01516293947972        2.52597132084284       -1.07416956800558
C           -1.14986414475187        1.40075826865649       -1.69392449525579
C            0.12651811293165        1.28084601601791       -0.95513989967102
N            0.68700290750388        0.07079363836696       -0.55930464628098
C            2.05737175771848       -0.00215983987926       -0.16111751882575
C            2.97626984897380       -0.51899143340479       -1.28942730923080
C            4.39993434384244       -0.43686317709611       -0.85237023473200
C            5.12783071001153        0.72268667243870       -1.03880991099447
C            6.43408569241584        0.82139004475340       -0.58302551096895
C            7.03308823080188       -0.24140997638281        0.07152948411375
O            8.31335630666185       -0.26087619255862        0.54443537379377
C            9.11832998855451        0.86782413708706        0.33471845645311
C            6.29218116662652       -1.42509034523367        0.28474288181495
O            6.95545269324350       -2.42033263795158        0.94152397134680
C            6.28804090833386       -3.63931399838168        1.15205943716180
C            4.98941711071463       -1.50121230405162       -0.17257605490627
C           -0.06516604561682       -1.14833125718380       -0.68175934133560
C           -3.95439054933104        2.98844814574753        0.56663593835543
C           -4.48116452629973        2.89256670524121        2.00026441578219
C           -3.51479816413248        4.42417401457870        0.30836344014152
H           -4.75255177311279        0.88034542031591       -1.22017779621040
H           -6.94611052148854        0.19568163333357       -1.67665728196110
H           -7.25780115966164       -1.22047088924599       -2.71198771623273
H           -5.75735775337063       -0.27347761150672       -2.92350995512050
H           -4.85496973120496       -3.88533014071728        2.38047744170047
H           -5.27078048288428       -5.09633179955734        1.14547007449587
H           -3.59633778146536       -4.50515291378649        1.27213975226715
H           -3.08907019472295       -2.33844700566249        2.09908245074244
H           -2.19633555593526       -0.09687715691894        2.05056854237599
H           -2.77659044398759        2.77371564024756       -1.84276769723928
H           -1.37176588761567        3.39797026565464       -0.87543191629302
H           -1.67420717625781        0.48104671842681       -1.61814409404853
H           -1.02984608402244        1.58414572555620       -2.77980907047770
H           -0.77587504848133        1.51947610067152        0.88022968335019
H            0.81218115750716        2.08903940441880       -1.05502399430304
H            2.16950309533691       -0.65863051363025        0.71074116941346
H            2.38129536511521        0.99684561218800        0.13574572747492
H            2.80799012529288        0.10586373489151       -2.16693637583257
H            2.70406623941738       -1.54407715477267       -1.53324110388810
H            4.68112259498801        1.56336500756542       -1.54579925066952
H            6.97645225581423        1.73842367713353       -0.75062447849133
H            8.70716995892400        1.74927521326245        0.83707448376667
H            9.24079489622038        1.08074212165575       -0.73262834378389
H           10.09035763204121        0.62403322166059        0.76597631648861
H            7.01228345557405       -4.28020996516297        1.65340424747990
H            5.40826084181621       -3.51401147557637        1.79262157854503
H            5.98145363460380       -4.10337749253862        0.20767129496246
H            4.40694170763520       -2.39533933305303       -0.01768369398550
H           -0.21213857697698       -1.44818706659252       -1.72815541591643
H           -1.04806283864810       -1.04564255765088       -0.21218316975127
H            0.45562200439834       -1.94746891283060       -0.16199782106665
H           -4.78164235889181        2.76296111395654       -0.11847831690060
H           -3.67681864855770        3.11819850876476        2.69035817332946
H           -4.85926870359592        1.89616538043130        2.22276857742857
H           -5.28942460643740        3.60702134345287        2.14054307961809
H           -2.65956293575389        4.63025934919482        0.93989607835499
H           -3.23280595587667        4.56406102498348       -0.72928439487266
H           -4.32328351034015        5.11164578446437        0.54002987348801
H           -0.66170859090569        2.92919980454982        2.66111518944077
