72
 energy: 54.362113518277 xtb: 6.6.1 (8d0f1dd)
N           -1.54519592043894        3.04817202111679        2.07267375732445
C           -1.70698563976894        2.07815191370348        1.27230843791422
C           -2.88810784976148        1.88627559019461        0.43595974435943
C           -3.38794159973147        0.46530128254487        0.41962718661201
C           -4.43968496256161        0.09446101962797       -0.42503930564240
C           -4.97223752129259       -1.17031156512366       -0.40791159752034
O           -5.97039995222122       -1.60779635165234       -1.22749687030932
C           -6.57724291059672       -0.69220489389726       -2.09857743245077
C           -4.47670240155404       -2.13323188351087        0.49482889226868
O           -5.04802245726136       -3.36467624918984        0.40570424753893
C           -4.64116778432588       -4.35191687121978        1.31085095962785
C           -3.48633780150958       -1.76212903755324        1.38053343071697
C           -2.96065916359394       -0.48178707785400        1.34631621727148
C           -1.72152324950779        2.85544556922733       -1.14615197777488
C           -0.99946250126956        1.64149245550323       -1.71013136147844
C            0.27260393915048        1.44000680461766       -1.01556491884242
N            0.73635814860395        0.21213270451881       -0.57760282203302
C            2.09853861581577        0.06001629276045       -0.16121430366473
C            3.01052538400184       -0.48203161015148       -1.28559554870478
C            4.43768832127696       -0.43365533263358       -0.85028355816802
C            5.17858188404602        0.71745508234046       -1.02719710881409
C            6.48277906768352        0.79712137737396       -0.56411511442663
C            7.06632584756232       -0.27875502789475        0.08432380279854
O            8.34634227069212       -0.31625136740094        0.55827841764226
C            9.16355101747130        0.80384641164958        0.34963665443607
C            6.30890312984644       -1.45438850655214        0.29013068384861
O            6.95250325388069       -2.46240165966381        0.94678149716377
C            6.25951953308101       -3.66805967853865        1.15186492416033
C            5.00727796853715       -1.51070880329613       -0.17407712467293
C           -0.06951817125767       -0.98131579886569       -0.73633315880922
C           -4.03007488245127        2.90792168496245        0.57694280613201
C           -4.45618628333172        3.02934452821197        2.04917442729604
C           -3.65849117695160        4.31208278698687        0.08390882317231
H           -4.85032028341655        0.81096610063590       -1.11490126810622
H           -7.05091741400387        0.13170588287325       -1.55431848815092
H           -7.34223367307626       -1.26228756696910       -2.62584363410556
H           -5.86079592524653       -0.28068805360768       -2.81698600452535
H           -4.82587674314397       -4.05320368515956        2.34930991770879
H           -5.25200911832173       -5.21958620836457        1.07255809328835
H           -3.58290072752444       -4.61013568845958        1.18887343822886
H           -3.09868468083433       -2.46969282828519        2.09813829545552
H           -2.22489989530789       -0.23179866601772        2.09187657701409
H           -2.47803973351898        3.11139966956068       -1.88954378048364
H           -1.03921404979069        3.67527916208610       -0.83153901959731
H           -1.58138140077662        0.78440957107603       -1.58683171810229
H           -0.92421072586151        1.80141985408517       -2.80151666438280
H           -0.89088386236127        1.36181741870465        1.09279904080111
H            0.99192547237708        2.20596037083855       -1.13512872492896
H            2.15256472375853       -0.59879083357276        0.70883275269243
H            2.45685448322986        1.03587461711039        0.15885026031760
H            2.85385871495387        0.14499788825161       -2.16369556841734
H            2.71303151267189       -1.49820024344661       -1.53163211368885
H            4.74256216472340        1.56737491136123       -1.52746092853689
H            7.03345584941874        1.71101663983452       -0.72004521845105
H            8.76421301861808        1.68751920620886        0.85764948946876
H            9.28229560838990        1.02003557215960       -0.71753952334192
H           10.13500008988042        0.54602373658218        0.77447586085302
H            6.97022023204545       -4.32328435148297        1.65390257743374
H            5.37995117140025       -3.52604426994113        1.78957010163269
H            5.94528700059124       -4.12307175459461        0.20525979469135
H            4.39760514276218       -2.38747397877359       -0.01477793037305
H           -0.19296202000693       -1.27208163683012       -1.78853383811665
H           -1.06454447998816       -0.84654065845060       -0.30240583216135
H            0.38740854633265       -1.81085718569935       -0.20495314574356
H           -4.89611988417896        2.57179369938384       -0.00511220923644
H           -3.60932495965595        3.34188937094701        2.64948741061017
H           -4.81396473122385        2.07686449306728        2.43988763989566
H           -5.25401349350135        3.76216837087242        2.13437911118738
H           -2.74861700076281        4.61182725630589        0.59112372323495
H           -3.48854771158283        4.32328779339500       -0.98772809814070
H           -4.45832675002001        5.01693653714469        0.29439122964793
H           -0.63169671012186        3.03831512246301        2.51455520647769
