72
 energy: 72.414891498521 xtb: 6.6.1 (8d0f1dd)
N           -1.46956696683328        3.13758448410568        1.83267802499355
C           -1.80489111024907        2.00630237690629        1.32101725731999
C           -3.05006985187636        1.72677819706457        0.68483152411228
C           -3.49768340244170        0.36604745407295        0.58073613497061
C           -4.53598483225729        0.00279537460648       -0.29984647004657
C           -5.03985840449275       -1.26507470028978       -0.32777556001754
O           -6.05444797846276       -1.68164514890842       -1.14026102107869
C           -6.68764611397831       -0.74777206075212       -1.97341286877799
C           -4.51079434340169       -2.25796367522502        0.52332555601202
O           -5.07524925563289       -3.49201182593371        0.40304508939535
C           -4.63150439497450       -4.50953364334560        1.24689338318000
C           -3.50003374221178       -1.91870848428750        1.39641217860524
C           -2.99570376874666       -0.63985058485049        1.41100168604536
C           -1.29330818337913        3.31040168763451       -1.43201426470668
C           -0.81510842388950        1.91194857625387       -1.68418823596987
C            0.44960620179309        1.61090100445898       -1.05883649674050
N            0.79202504740541        0.38353679729744       -0.60504358375680
C            2.13205025847844        0.14091826854107       -0.14622307278667
C            3.03523346162147       -0.42843345345721       -1.26136233074359
C            4.46458078413651       -0.41652049049262       -0.81867749215520
C            5.23118840257023        0.71618950192500       -0.99793942889992
C            6.53707170157679        0.76504852308648       -0.53827357883241
C            7.09778036264682       -0.32839735791093        0.10117035101272
O            8.37726289950358       -0.39195825162712        0.57025395328144
C            9.21186986721307        0.71792407593636        0.36516869140312
C            6.31439667174137       -1.49001232203180        0.30165727467688
O            6.93921935081385       -2.51463264364449        0.94706884328661
C            6.22235669768432       -3.70583753006397        1.14894286742541
C            5.00632996785354       -1.51266543129776       -0.15103106558858
C           -0.07188901264988       -0.77109486252537       -0.79712609071404
C           -4.11209600102618        2.82074020326461        0.63520003586539
C           -4.40572946164370        3.21683850751766        2.08513409857725
C           -3.85062548468539        4.12273917759534       -0.14933768142164
H           -4.97163187443727        0.73205991147140       -0.96562966199897
H           -7.17723070138859        0.04683051122072       -1.40025924762022
H           -7.44178298362469       -1.31915920985320       -2.51483080049654
H           -5.99089749746338       -0.29157523628410       -2.68428973434441
H           -4.79552434261031       -4.26524320910126        2.30410464204210
H           -5.23788389550879       -5.36957981348022        0.97272434040586
H           -3.57292340675585       -4.74538623457200        1.08676529597771
H           -3.10018390746026       -2.64133349402887        2.08916732386621
H           -2.24970595277412       -0.40631852126898        2.15015623279463
H           -2.12801340647898        3.52198981808577       -2.06878628721270
H           -0.57687289780832        4.05703224515572       -1.13120535459458
H           -1.55496508480125        1.22530496839387       -1.42249033357445
H           -0.71928065029125        1.95476543445847       -2.77435039922289
H           -1.07638271648057        1.18330773602185        1.29808624056077
H            1.18241525008552        2.37520624609246       -1.13193461594816
H            2.09648261044572       -0.53491629666969        0.70684214920939
H            2.53869382079428        1.08538528485427        0.20173718951831
H            2.90236287245362        0.19717478639426       -2.14578529811080
H            2.70907561636407       -1.43750147168211       -1.50742708196828
H            4.81247833099206        1.57877700626531       -1.49178053877247
H            7.10358784883518        1.66973493574586       -0.68941085289498
H            8.83136623661216        1.60559018941937        0.88126920373230
H            9.32956666482241        0.94050624104525       -0.70090869075202
H           10.17964831056275        0.43993733642678        0.78339062094903
H            6.91934392168815       -4.37664257478821        1.64912357494883
H            5.34623014733398       -3.54800401050793        1.78754773271692
H            5.89935796144747       -4.15099353606026        0.20068787975195
H            4.37844231674014       -2.37877851956903       -0.00331487912839
H           -0.17297328519342       -1.04670930758813       -1.85472145128131
H           -1.07395984409404       -0.59118690307804       -0.39801927846656
H            0.31824981971249       -1.63097109864654       -0.26172154837258
H           -5.01579487106419        2.39110470758226        0.21327734961376
H           -3.51763541106851        3.61084688985162        2.56635276737862
H           -4.73264290667749        2.34977287437885        2.64885604038639
H           -5.19794868010063        3.95766958126206        2.10434069225836
H           -2.90629175918840        4.54013737772840        0.17770108568824
H           -3.82451717333526        3.95083485219720       -1.21899671919639
H           -4.64990592244095        4.84651971701946        0.02112981423260
H           -0.56256938327392        3.12710022270872        2.30027531367609
