72
 energy: -1.284602343544 xtb: 6.6.1 (8d0f1dd)
N           -1.54862400305287        2.90410522089812        2.21132454296601
C           -1.60981263617383        2.12947481814186        1.21777489685930
C           -2.78142023440432        2.01005601274718        0.27571855282705
C           -3.33811888243660        0.58332152480678        0.34593653687650
C           -4.35677439556670        0.19317501059085       -0.52242082215641
C           -4.89843998971609       -1.07498128079450       -0.48356550804542
O           -5.87578412592635       -1.53593629649497       -1.31532369015941
C           -6.46172851124532       -0.64092627997367       -2.22189906324428
C           -4.43369963434773       -2.01040277724914        0.46514448131042
O           -5.01430550277871       -3.24041964230678        0.40713776258262
C           -4.65597485599040       -4.19472647945854        1.37185203199585
C           -3.45861101972376       -1.61570612198951        1.35856725468114
C           -2.92925111663651       -0.33043526633513        1.30492984006816
C           -2.06501859653051        2.46797469591279       -1.09654078333487
C           -1.18173082350474        1.34137582016443       -1.69050096144320
C            0.09286087909897        1.23968243849716       -0.94023826112712
N            0.67415712669997        0.03762599574296       -0.55634358234077
C            2.04481812712767       -0.01529167066755       -0.15882622366373
C            2.96623573941280       -0.52660683115135       -1.28705281518972
C            4.38991752882565       -0.43671287666670       -0.85000743809061
C            5.11502601250676        0.72421458615203       -1.04053713367767
C            6.42232187648439        0.82671395306329       -0.58802817922589
C            7.02470010939193       -0.23297340833795        0.06789233380752
O            8.30464396432310       -0.24806820503351        0.54024228808842
C            9.10671496566561        0.88305184891149        0.33061908263182
C            6.28752366956468       -1.41853652317336        0.28336127357786
O            6.95559870080111       -2.41051872676606        0.93929858613553
C            6.29491669150970       -3.63258676574430        1.15220210731593
C            4.98416013367034       -1.49909210839768       -0.17073611928564
C           -0.06231070961015       -1.18958151233479       -0.66671420441867
C           -3.93622448594355        3.00966971870827        0.56933754117527
C           -4.48734226916147        2.86235628812710        1.98725999025000
C           -3.48287100905362        4.44884389675113        0.36873375535430
H           -4.72933369993909        0.89855817770067       -1.24359003848038
H           -6.92071274890037        0.21065618439581       -1.70842594066305
H           -7.23642504923942       -1.21148706119401       -2.73392259336559
H           -5.73302058775286       -0.27228806282805       -2.95172110563495
H           -4.86274426230657       -3.84195526553949        2.38776630101594
H           -5.27620943655951       -5.06456817979246        1.16341505699402
H           -3.60017383023597       -4.47834643981530        1.29391741890997
H           -3.08365875512621       -2.30862229379298        2.09704407694230
H           -2.18647599741650       -0.06561347280814        2.04002729969373
H           -2.84326678561671        2.68290671809785       -1.85492448839223
H           -1.43732585365107        3.35641962152164       -0.95127009651123
H           -1.70629407300165        0.41457597056460       -1.61827976704049
H           -1.03737604868893        1.52278001159794       -2.77251905262156
H           -0.75076505279843        1.55347713939245        0.81837816360701
H            0.76568756186950        2.06360418014977       -1.02784296419038
H            2.16154167685765       -0.66772996801517        0.71707797338132
H            2.36096994239696        0.98927731720436        0.13043948915328
H            2.79636464530976        0.09655670046523       -2.16589267003364
H            2.69992448867285       -1.55390535492364       -1.53028049370835
H            4.66614247544905        1.56281376100913       -1.54947455048591
H            6.96317402297053        1.74386573936046       -0.75974349448518
H            8.69311884865401        1.76421676837400        0.83154614492408
H            9.23089225277325        1.09542744872754       -0.73662447919238
H           10.07823554774429        0.64223238114100        0.76398756190196
H            7.02251971433380       -4.26955632246652        1.65363928379230
H            5.41540800633378       -3.51129208888895        1.79379585267606
H            5.99047477958204       -4.09955679101573        0.20870507483663
H            4.40722837489326       -2.39662400863873       -0.01442832060887
H           -0.21521569550282       -1.49285748931381       -1.71086751929272
H           -1.04106921095692       -1.09553840477243       -0.18725189885354
H            0.47784908801157       -1.97862495491981       -0.15089144430981
H           -4.75198773555171        2.81338668645817       -0.13794941882108
H           -3.69513904706252        3.06296323290581        2.69892994418200
H           -4.86791028477134        1.85851763777458        2.16377747692828
H           -5.29897135495068        3.57030135662406        2.13932147369517
H           -2.64290218811350        4.63468886041260        1.02678999571913
H           -3.17770940066309        4.62230252639025       -0.65729064540459
H           -4.29547378457831        5.13019080298781        0.60567502099226
H           -0.64943943882287        2.88631229545523        2.68138893036773
