72
 energy: 11.645487634341 xtb: 6.6.1 (8d0f1dd)
N           -1.58025382252566        2.98888966204865        2.17844068939935
C           -1.64998313515857        2.12181057361460        1.25974336337977
C           -2.79870041627029        1.97928002886557        0.30364626988745
C           -3.34769510591413        0.53771968665404        0.36262233152758
C           -4.38643796303569        0.15442146734277       -0.48713318230710
C           -4.92842930150417       -1.11176739559219       -0.45324099080510
O           -5.91424915351559       -1.56393509201980       -1.27961890765354
C           -6.50825937356865       -0.66113296371290       -2.17246111865301
C           -4.45221053914795       -2.05811440971096        0.47769644899141
O           -5.02785144925456       -3.28898311064159        0.40657764607923
C           -4.64961388812029       -4.25757034042538        1.34770513007847
C           -3.47314375532483       -1.66985730098658        1.36845654799480
C           -2.94322670279071       -0.38494396913858        1.31824013963833
C           -1.95763358793958        2.59068746219519       -1.06457278145614
C           -1.11548368602757        1.46081330976153       -1.69793957068129
C            0.16055281764924        1.32320665705969       -0.96800765695315
N            0.69929595723580        0.10472960192548       -0.56284577539881
C            2.06827170140097        0.01254963348330       -0.16306593173779
C            2.98599534306915       -0.51060503559920       -1.29033522846386
C            4.41005538156659       -0.43702349062905       -0.85392731037276
C            5.14114741306603        0.72082124494796       -1.03697600409315
C            6.44655446993706        0.81532210458558       -0.57853190706730
C            7.04197292131730       -0.25064347892867        0.07461410847904
O            8.32249596347302       -0.27418722273014        0.54821382773346
C            9.13020313763482        0.85232426768662        0.33849353895998
C            6.29712694158494       -1.43238795115594        0.28566515852946
O            6.95542042501308       -2.43078414578163        0.94332962625133
C            6.28106342158425       -3.64625983021208        1.15220808696261
C            4.99476556497987       -1.50397437928512       -0.17425014047970
C           -0.06672908674763       -1.10731527279940       -0.69565455236043
C           -3.97132480936049        2.96873991751781        0.56628662106637
C           -4.47472579867456        2.92494453034502        2.01315372615076
C           -3.54818302954009        4.39957218439894        0.24981089572427
H           -4.77728774724978        0.86269080576223       -1.19565604923224
H           -6.97278513952815        0.17954151643815       -1.64626105873135
H           -7.27944052951820       -1.23129357547134       -2.69051096635546
H           -5.78322177660196       -0.27578123283170       -2.89691701045533
H           -4.84743467890973       -3.92640276364542        2.37298981516673
H           -5.26572629259585       -5.12729805532436        1.12864817556600
H           -3.59269985763844       -4.53133255257128        1.25164957031672
H           -3.09296863894413       -2.36951150259602        2.09878480226122
H           -2.20543249213763       -0.12894450878618        2.06102693919254
H           -2.70817669442348        2.85954542112817       -1.83617493720374
H           -1.29858353809933        3.45217920441912       -0.83179922046408
H           -1.64418970604334        0.55069835649143       -1.61701015375760
H           -1.01158291905200        1.64510359844518       -2.78576694010184
H           -0.80143027446764        1.48538534736448        0.94118309731217
H            0.85844726254334        2.11600373241646       -1.07967781411011
H            2.16892680233749       -0.64494556966322        0.70720246808511
H            2.40020099523921        1.00584207055068        0.14069071034331
H            2.81993574663285        0.11550703337882       -2.16716454864875
H            2.70730582072453       -1.53322719202394       -1.53483136789495
H            4.69694803068883        1.56368954291612       -1.54221335257674
H            6.99065300859977        1.73199457523147       -0.74237654005882
H            8.72173182057588        1.73429456425218        0.84212376021817
H            9.25155344427014        1.06582664644630       -0.72888883948771
H           10.10243749000643        0.60550207730896        0.76801538023009
H            7.00159609888248       -4.29104069572409        1.65395431201501
H            5.40105082144110       -3.51625775518512        1.79161689973410
H            5.97252966411840       -4.10784504892487        0.20711416434756
H            4.40523729278436       -2.39371666100500       -0.01851661115672
H           -0.20772361422559       -1.40493809264593       -1.74383188783346
H           -1.05325148181750       -0.99726602009593       -0.23499304864466
H            0.43743919043635       -1.91459430166198       -0.17230467807514
H           -4.80903219894973        2.71277739530359       -0.09499541366826
H           -3.66033411632756        3.17438578888530        2.68287833189935
H           -4.85011276232038        1.93772774095606        2.27996468827258
H           -5.28001158370753        3.64549342056519        2.13972262311693
H           -2.67805226423577        4.62891737321373        0.85258070933191
H           -3.29207346024996        4.50645993407122       -0.79842722391666
H           -4.35439858219182        5.09064517447564        0.47602345012858
H           -0.67163424735857        2.96961149430164        2.63602079603748
