72
 energy: -6.048433279589 xtb: 6.6.1 (8d0f1dd)
N           -1.51350464962057        2.81292191910543        2.23287236342647
C           -1.56945905411070        2.14293567902630        1.17015799075390
C           -2.75835468187896        2.04660263930427        0.25404020930355
C           -3.32643850927009        0.63211907402544        0.33427130565079
C           -4.32271793692873        0.23154750149131       -0.55687897643695
C           -4.86547675271184       -1.03817428953342       -0.51441740108231
O           -5.83698873124555       -1.50561508351794       -1.34896965038588
C           -6.41738607077266       -0.62047437347584       -2.27053037141914
C           -4.41082324254497       -1.96347845712924        0.45081996506413
O           -4.99915333298095       -3.19100429158154        0.40881543737622
C           -4.66129002914574       -4.13131997678755        1.39569005006104
C           -3.43675877220363       -1.56348377525190        1.34431326536545
C           -2.90580973329398       -0.27853470631266        1.28816028077887
C           -2.15117480042508        2.35778660083636       -1.16003277263110
C           -1.23920728944031        1.22724141362532       -1.68046020304853
C            0.02910877458638        1.16025899260626       -0.90928092791925
N            0.64587667913163       -0.02476317425250       -0.55582369046365
C            2.01497383893569       -0.03314061285704       -0.15684457612794
C            2.94443954370573       -0.53802298902274       -1.28086050059633
C            4.36856875140990       -0.43450643617242       -0.84192272178398
C            5.08828002491410        0.72865538195928       -1.04201749579166
C            6.39775093872091        0.83758627272382       -0.59723014431199
C            7.00578829192876       -0.21620592162098        0.06158916593851
O            8.28499349285291       -0.22289927434786        0.53244706935594
C            9.08176179337210        0.91315385309544        0.32322180148132
C            6.27569502436055       -1.40575794623248        0.28176343543796
O            6.95401613603374       -2.39130176888858        0.93442650614048
C            6.30934311985847       -3.62005313838530        1.15281969264732
C            4.97132650838365       -1.49481220324281       -0.16530371975584
C           -0.05554613750331       -1.26933446376395       -0.63607046011646
C           -3.89373842073603        3.05513816914060        0.57754385528524
C           -4.49418803792424        2.80349744706171        1.95827694900875
C           -3.42237060972460        4.50040714950319        0.49184124063642
H           -4.68148138286116        0.93182907075331       -1.29143406315889
H           -6.87197173529722        0.24188939250283       -1.77124900313279
H           -7.19465016359278       -1.19399907843449       -2.77445496951803
H           -5.68843125957859       -0.26964594776882       -3.00919487893402
H           -4.87625739595347       -3.75720490413923        2.40206214254627
H           -5.28683652910382       -4.99982213576810        1.19568468914603
H           -3.60729785832679       -4.42495975226086        1.33507346015911
H           -3.07212294209520       -2.24720367965432        2.09544505685974
H           -2.15966758820241       -0.00484614351565        2.01711590370307
H           -2.96591998157068        2.48536169780736       -1.88173940947151
H           -1.56977769744164        3.28477177963130       -1.13191194041312
H           -1.77456642154616        0.28978620065855       -1.62241641202850
H           -1.02500505071713        1.41103582924051       -2.74425348413017
H           -0.70501371618074        1.62215734834040        0.69722542779199
H            0.67822021835368        2.01357030445747       -0.97080582931003
H            2.13276881210484       -0.67006035433667        0.72774799105514
H            2.31779398968087        0.98068322850657        0.11682534331342
H            2.77313097636006        0.07789181205734       -2.16507359985186
H            2.68764957680687       -1.57005399136421       -1.51968841329884
H            4.63558100417253        1.56250546224875       -1.55671962457707
H            6.93649343683695        1.75389769277474       -0.77890258873985
H            8.66491196559207        1.79474909345594        0.82128378872483
H            9.21056109524010        1.12475058313459       -0.74366920652835
H           10.05063725983919        0.67588602812704        0.76176514795845
H            7.04486917763326       -4.24757821918225        1.65432847560152
H            5.43059101948529       -3.50841843098415        1.79720200972661
H            6.01039121803227       -4.09422051784439        0.21151999169058
H            4.40269783248358       -2.39794189886871       -0.00723270077398
H           -0.22111151835862       -1.58084751340739       -1.67446170047227
H           -1.02478051744252       -1.19451177651367       -0.13495020298505
H            0.52882301292940       -2.03407409663537       -0.13085365056502
H           -4.68530146530502        2.91462110551570       -0.16886617385789
H           -3.73346553991371        2.95276431346419        2.71667401492083
H           -4.87423850562143        1.78889818719024        2.03977142117979
H           -5.31593378377504        3.49433586663443        2.13309491806610
H           -2.61259119396943        4.65820399370202        1.19623928157053
H           -3.07978130103541        4.74639153223270       -0.50827049088169
H           -4.24638648272242        5.16436539588841        0.74138831546739
H           -0.61948410408783        2.80599028464477        2.71588086797833
