72
 energy: 68.845286131374 xtb: 6.6.1 (8d0f1dd)
N           -1.43689924210946        3.14052394563066        1.70737114058910
C           -1.83336558408495        1.96602721145167        1.36026747492494
C           -3.08815100405952        1.68691564527098        0.75166183465050
C           -3.53771245271635        0.33144067860605        0.64226939789604
C           -4.57301017210434       -0.02931114331767       -0.24852996503723
C           -5.06464923073000       -1.30126778069312       -0.29643194055481
O           -6.08442866438235       -1.70816520512194       -1.10264204209327
C           -6.73020205106517       -0.77023141647427       -1.92278067228843
C           -4.52447538249931       -2.30561658404631        0.53416311455979
O           -5.08356715214926       -3.54144199881332        0.39857267578831
C           -4.63018816908847       -4.57176450975091        1.21988549884598
C           -3.51145233756053       -1.97446968138537        1.40725210132809
C           -3.01826147476180       -0.69218718265707        1.44313453569500
C           -1.13945937809432        3.42951403989381       -1.56865922957016
C           -0.76373200000032        1.99440886237350       -1.69420005160974
C            0.50638925702446        1.64983507253168       -1.10060113553174
N            0.80796773297176        0.44068610735810       -0.60701705574518
C            2.13849359189889        0.17389236919266       -0.13972322061025
C            3.03631517870979       -0.40603635462531       -1.25060189320617
C            4.46647946134426       -0.40535432636739       -0.80294898895976
C            5.24543270569856        0.71959936935675       -0.98037076137111
C            6.55451765454802        0.75232079135114       -0.52778146845125
C            7.10659042806184       -0.34801395363739        0.10645512249371
O            8.38563409539133       -0.42325102657616        0.57223528168810
C            9.22812678854343        0.68205191188011        0.36996410335095
C            6.31186836620173       -1.50207745145432        0.30446503839904
O            6.92925890732155       -2.53317546666682        0.94374893616131
C            6.20733964098326       -3.72079172675681        1.14643635868331
C            5.00270623422531       -1.50863217473346       -0.14437252662729
C           -0.07088669176421       -0.69427351814084       -0.81526125574974
C           -4.13325642670391        2.78760953016909        0.65612738012179
C           -4.38014028030616        3.28370028002142        2.08192255383310
C           -3.91775140914249        4.03585308748159       -0.24154587759651
H           -5.01897469299964        0.70303637849321       -0.90512419328782
H           -7.22687666699439        0.01149981938435       -1.33902780359241
H           -7.47907982035311       -1.34373170182263       -2.46840792006236
H           -6.04383424710231       -0.29724755591976       -2.63253271322256
H           -4.78724598921735       -4.34940838944549        2.28322200967824
H           -5.23691438425545       -5.42675050051673        0.93008089478120
H           -3.57241814253107       -4.80136756147276        1.04734022217968
H           -3.10540233069616       -2.70463808830548        2.08973912852081
H           -2.27137817783654       -0.46853174820424        2.18197068203243
H           -1.98865387813105        3.64990620100632       -2.16578789678288
H           -0.40504625833145        4.15874507585854       -1.27383448371644
H           -1.56630575151685        1.40611928811526       -1.33408090346013
H           -0.67579936578045        1.93613278638860       -2.78784377031507
H           -1.14396499596894        1.10310882172200        1.40792780786053
H            1.22238793344584        2.43241660467839       -1.07266550137729
H            2.07424272377927       -0.51036229403866        0.70262154502969
H            2.56674843835404        1.10550162974420        0.21748804313468
H            2.91915764619639        0.21798763623917       -2.13878446664461
H            2.70493836076689       -1.41348784904256       -1.49721501646061
H            4.83706985810647        1.58776683189669       -1.47369864878195
H            7.13010025257997        1.65101185549541       -0.68014745857653
H            8.85698793910569        1.57184579699212        0.88977225922819
H            9.34767438091586        0.90804138779396       -0.69518335205672
H           10.19264098079178        0.39473966891051        0.78691473860056
H            6.90039982136895       -4.39696014600488        1.64479783336596
H            5.33387847310070       -3.55910698110809        1.78748367009562
H            5.88181459844164       -4.16445116730473        0.19864269104615
H            4.37349461480210       -2.37439883852020       -0.00180967551057
H           -0.16219705762645       -0.95957777450626       -1.87439689272969
H           -1.07088203551960       -0.49065086775734       -0.42869885634671
H            0.29824050415087       -1.56295624499517       -0.28285224928795
H           -5.04883758318652        2.32445625924531        0.30824285360855
H           -3.48707166272001        3.71035226763521        2.51072705396735
H           -4.69079491697982        2.46045728361587        2.71697735283852
H           -5.17003452044826        4.02446896725120        2.07130773234685
H           -2.96648772759152        4.49735764915420        0.00943167767641
H           -3.93516194699383        3.78203727262795       -1.29907272158200
H           -4.71619035195167        4.76988003581410       -0.09383917516233
H           -0.54791686356647        3.15248969452852        2.21012654428151
