72
 energy: 70.792841352405 xtb: 6.6.1 (8d0f1dd)
N           -1.50902752960384        3.09448671850809        1.98976564879865
C           -1.74350931513774        2.05308989663710        1.27841653804231
C           -2.96564628428054        1.80405403440334        0.56036223353512
C           -3.42962137126788        0.41800664699401        0.48152420409344
C           -4.47936304789813        0.05618456915164       -0.37572192337646
C           -4.99992066260902       -1.20915767200398       -0.37636783090748
O           -6.00549244110629       -1.63783180760533       -1.19317116864773
C           -6.62212054026511       -0.71390741358191       -2.04861999817653
C           -4.49122815172807       -2.18388135601307        0.50638481100674
O           -5.06116945870725       -3.41670091430870        0.40448440953525
C           -4.63688864967017       -4.41506136888079        1.28531740099320
C           -3.49055989473078       -1.82886538985386        1.38685781441768
C           -2.96631760264063       -0.55409336625633        1.36693883738444
C           -1.52913596292811        3.06140775376864       -1.24783795843249
C           -0.91955913020421        1.75642989283119       -1.70848510144542
C            0.34572789023717        1.50808966750406       -1.04289752799626
N            0.76086041642326        0.28757414221415       -0.59263382812260
C            2.11550610364651        0.09328774889185       -0.15623661210612
C            3.02265688370313       -0.46084777010074       -1.27778465999530
C            4.45254795211758       -0.42871652801423       -0.84059677413996
C            5.20141686364680        0.71610585536644       -1.01748866652950
C            6.50580935383050        0.78449038583191       -0.55403302540893
C            7.08071183472645       -0.29814380897392        0.09118838291341
O            8.35963985638655       -0.34564949029649        0.56377219980102
C            9.18402584381724        0.77034320288908        0.35640403370037
C            6.31378314592742       -1.46922634230510        0.29465372484276
O            6.94852624872494       -2.48339081911338        0.94773589764930
C            6.24482842263997       -3.68311146012912        1.15118446862809
C            5.01037651907227       -1.51333753487968       -0.16637941075656
C           -0.07048181338386       -0.89522537126406       -0.76128777644568
C           -4.06619876133555        2.86988112391694        0.59583627230887
C           -4.44037641921015        3.10397620852604        2.06880096374048
C           -3.73336138097207        4.24103648923493       -0.01953750854530
H           -4.89890662118552        0.77983993553202       -1.05436956957731
H           -7.10196376768002        0.09860929623409       -1.49267883736145
H           -7.38294804279380       -1.28414347340103       -2.58178481895392
H           -5.91312006830608       -0.28440172698654       -2.76403711053031
H           -4.81262822576500       -4.13813850855565        2.33198509538048
H           -5.24493806236157       -5.28050211354217        1.03333126887914
H           -3.57793412215940       -4.66341441222770        1.14724418746405
H           -3.09871645612845       -2.54090762283893        2.09583274338699
H           -2.23324494427944       -0.30330305214785        2.11366967165130
H           -2.31213200312505        3.26151804169109       -1.95438719334021
H           -0.85432578725788        3.85349452733120       -0.91190085423121
H           -1.56789803797647        0.96030907446029       -1.53742226594776
H           -0.84554835068738        1.88283318824679       -2.80351584009526
H           -0.95911000217146        1.28465806147090        1.19104402895691
H            1.06988374617399        2.27345425183561       -1.14519619670871
H            2.12968180853597       -0.57303212958209        0.70750715290367
H            2.49317879339036        1.05613758645483        0.17520163632558
H            2.87532927380604        0.16528224091696       -2.15869582172362
H            2.71328911079664       -1.47365708586466       -1.52427506642788
H            4.77185836220229        1.57090657077021       -1.51519221034781
H            7.06183718724329        1.69542488007473       -0.70689757992779
H            8.79169273744602        1.65536493088694        0.86755838090314
H            9.30181701189333        0.98868302437132       -0.71042061408334
H           10.15418673118760        0.50446124300318        0.77846405526588
H            6.94964915700340       -4.34469584809379        1.65284116951886
H            5.36630025791179       -3.53407414625176        1.78870332483668
H            5.92710322981106       -4.13400704473121        0.20378000217991
H            4.39137453302265       -2.38470842967807       -0.00943578638638
H           -0.18371050580814       -1.18091301632189       -1.81525682969040
H           -1.06930973545623       -0.74317470967278       -0.34270739964193
H            0.35815760090859       -1.73789392266371       -0.22726869876730
H           -4.95067733360071        2.48845480851204        0.07205182040273
H           -3.57403713891664        3.45163025898659        2.62024269635127
H           -4.78493047187378        2.18133818332020        2.53480913522195
H           -5.23463574956219        3.84151016182444        2.12592127915877
H           -2.80449340309412        4.58753211956803        0.41956147012442
H           -3.62165403592246        4.18233710477361       -1.09920661098983
H           -4.53160520379348        4.95578203844780        0.17831991955516
H           -0.59402682779343        3.07932464681635        2.43304660523649
