72
 energy: 73.166077675124 xtb: 6.6.1 (8d0f1dd)
N           -1.48223586547890        3.12725426210327        1.88766055511503
C           -1.78674066739102        2.02131080339471        1.30659579621068
C           -3.02556030557073        1.74830217965819        0.64881945350345
C           -3.47575756938713        0.38173162222746        0.54860702221990
C           -4.51709138673013        0.01954874063013       -0.32579369067222
C           -5.02685275495685       -1.24671279614940       -0.34384190876064
O           -6.03852488507842       -1.66706772432334       -1.15807211713200
C           -6.66603267761814       -0.73624725728722       -1.99848654833345
C           -4.50514092342397       -2.23371763315802        0.51787229937035
O           -5.07256717447349       -3.46748468409267        0.40248199692963
C           -4.63348556271596       -4.47798069281854        1.25924701917205
C           -3.49534855315834       -1.89072003728366        1.39171679665264
C           -2.98433697383064       -0.61389705626871        1.39502727182080
C           -1.36652880648173        3.23317897127894       -1.36496860614059
C           -0.84780881891216        1.85968238218447       -1.68769753057194
C            0.41589912208787        1.57241236744873       -1.05186469077763
N            0.78366022456422        0.35077743337355       -0.59837549201882
C            2.12932087225098        0.12410754889836       -0.14919841513903
C            3.03273716199413       -0.43941160583645       -1.26762261302557
C            4.46268782483117       -0.42111135007280       -0.82719366568175
C            5.22226360141703        0.71604281015930       -1.00529944836119
C            6.52729670258882        0.77166774358549       -0.54355922623742
C            7.09267803361667       -0.31820783096310        0.09795589787865
O            8.37177968664928       -0.37628123209426        0.56842005380493
C            9.20299470753377        0.73568209900831        0.36246219082831
C            6.31492521452879       -1.48332588005528        0.29936007413732
O            6.94276492832144       -2.50430051078616        0.94760981574753
C            6.22991342945609       -3.69826708000181        1.14989690610876
C            5.00835062021081       -1.51333728762713       -0.15622641140430
C           -0.07102986088378       -0.81264393607913       -0.78463922486195
C           -4.10158366025233        2.83601138835338        0.62101246610505
C           -4.42084960661002        3.17814254452044        2.08387268858080
C           -3.80903917024082        4.16183162736407       -0.11371696424695
H           -4.94714283065997        0.74737058307672       -0.99547822525053
H           -7.15233185830094        0.06443298598733       -1.43103002031008
H           -7.42245215484902       -1.30715648020795       -2.53718813542208
H           -5.96518485902981       -0.28889342869091       -2.71101448446606
H           -4.80090725440298       -4.22281373066364        2.31329708232277
H           -5.23978117509570       -5.34032948596445        0.99299580308875
H           -3.57448600348729       -4.71752220692808        1.10632882356482
H           -3.09947175021110       -2.60876157919673        2.09151766223369
H           -2.24326231423269       -0.37295873554682        2.13747632092051
H           -2.17861023278415        3.43420107206106       -2.02780492288845
H           -0.66924041625756        3.99961391817641       -1.06489817652905
H           -1.55965570552832        1.13521215509598       -1.46169398673764
H           -0.75577864008636        1.92333133540101       -2.77619417059355
H           -1.03917195104524        1.21098886242231        1.28289383618486
H            1.14386610866015        2.33955990358471       -1.13912920043038
H            2.10789281871942       -0.54933336280210        0.70634534278277
H            2.52498396796658        1.07529872966230        0.19279099234385
H            2.89429611511102        0.18633098537830       -2.15087313081550
H            2.71103715588012       -1.44944559001730       -1.51372662748980
H            4.79963235411548        1.57579032561644       -1.50055093453090
H            7.08994708773188        1.67867695850798       -0.69487172676407
H            8.81837626532509        1.62240638742205        0.87686519012486
H            9.32053489945199        0.95672361006652       -0.70389684710057
H           10.17161405208245        0.46173827985681        0.78192806721467
H            6.92935797889546       -4.36604324921491        1.65072365624187
H            5.35285193705187       -3.54311560215107        1.78792249431735
H            5.90870209169884       -4.14530174152158        0.20187900529713
H            4.38270385640334       -2.38093961122766       -0.00545605167359
H           -0.17581306101191       -1.09102659772279       -1.84127829228304
H           -1.07272124460511       -0.64149136919218       -0.37998985012560
H            0.32962672828098       -1.66775931974491       -0.24970821937888
H           -5.00115776119498        2.41508483920657        0.16021454962451
H           -3.53827822172513        3.55851237786831        2.58558627282830
H           -4.75362676154064        2.29224355441742        2.62290445781524
H           -5.21202138083625        3.91936244681589        2.11297443477783
H           -2.86691175154371        4.55123601207536        0.25513550471703
H           -3.74813778929158        4.02542457289341       -1.19179693052391
H           -4.60563788576550        4.88641336788344        0.06561394532310
H           -0.57205123656741        3.11071539706752        2.34597249482668
