72
 energy: -4.495255600856 xtb: 6.6.1 (8d0f1dd)
N           -1.53280703771214        2.85722396940760        2.22454266653133
C           -1.58999271691393        2.13382179502329        1.19514957406498
C           -2.76963507232914        2.02706735223133        0.26467218081982
C           -3.33292465730159        0.60757636250760        0.33954143153563
C           -4.34079649339165        0.21282695982205       -0.53953946952526
C           -4.88251185647873       -1.05642318643428       -0.49895513279661
O           -5.85638644037276       -1.52128694018132       -1.33260521498175
C           -6.43943398274209       -0.63114573870721       -2.24657032863694
C           -4.42292643132290       -1.98669549502462        0.45811945496317
O           -5.00688245422685       -3.21576398510354        0.40770455410585
C           -4.65877048468737       -4.16278759024835        1.38395166395221
C           -3.44889813449138       -1.58907370337464        1.35205823376551
C           -2.91923342715251       -0.30382363163547        1.29716935625665
C           -2.10992819221009        2.41326218679169       -1.12815268009390
C           -1.21169344253043        1.28310772683564       -1.68677742461135
C            0.05956899508878        1.19929644331463       -0.92422570356103
N            0.66026009714204        0.00564741144326       -0.55456578305789
C            2.03067241105217       -0.02566046749528       -0.15747122615385
C            2.95563426316053       -0.53322757432861       -1.28410188735482
C            4.37954366295839       -0.43604370744864       -0.84668843673399
C            5.10198034565132        0.72601989127418       -1.04186958144131
C            6.41028626568235        0.83202364727590       -0.59278085182181
C            7.01568664662337       -0.22459716673645        0.06463338674911
O            8.29528228402303       -0.23539506068112        0.53634020229973
C            9.09462529131981        0.89815946742198        0.32682617529843
C            6.28209351810300       -1.41212306178292        0.28238960065200
O            6.95522316741645       -2.40080268074744        0.93699001831511
C            6.30212048698137       -3.62615646828992        1.15247452150016
C            4.97819326164296       -1.49700106787379       -0.16836574004027
C           -0.05903216203643       -1.23008749609862       -0.65118119029127
C           -3.91547259676591        3.03151694550341        0.57304210988354
C           -4.49089358703795        2.83248733819161        1.97342168545881
C           -3.45240436588214        4.47396157688952        0.43023549867144
H           -4.70593933158916        0.91606371777169       -1.26710486079166
H           -6.89622454394709        0.22580728889848       -1.74008681139297
H           -7.21545741864752       -1.20299579114063       -2.75480805701535
H           -5.71021531742109       -0.27112280828685       -2.98035951685763
H           -4.86982456472185       -3.79901321196665        2.39497923443624
H           -5.28153651349975       -5.03216390867133        1.18017431865921
H           -3.60375982178602       -4.45139159556458        1.31499505685495
H           -3.07776598787414       -2.27798372793597        2.09569695109134
H           -2.17430576352698       -0.03458612794745        2.02870461479456
H           -2.90522322852816        2.58925252108341       -1.87138658507838
H           -1.50133799322710        3.32058736314448       -1.04141472285267
H           -1.73989824481940        0.35045128784820       -1.61878242467744
H           -1.03605732882914        1.46136633556177       -2.76222619368102
H           -0.72703728813054        1.58808367364964        0.75733049351476
H            0.71967581924718        2.03870928697888       -0.99899740099379
H            2.14837991856919       -0.67030164617661        0.72324199334849
H            2.34000652808615        0.98382260184663        0.12403165948053
H            2.78470300104960        0.08708437966934       -2.16512991111594
H            2.69458240087679       -1.56283504557185       -1.52583106510536
H            4.65103574110915        1.56235565021693       -1.55321213275981
H            6.94991969987451        1.74895590595220       -0.76918032410661
H            8.67905063674133        1.77934165936462        0.82629074982637
H            9.22083223659915        1.11005766403580       -0.74028033944560
H           10.06515836826474        0.65965171361736        0.76256658990976
H            7.03346452127674       -4.25871322533459        1.65397079096294
H            5.42293268121083       -3.50945705567211        1.79530276114357
H            6.00019655644840       -4.09644737680767        0.20999754221740
H            4.40523791666019       -2.39710831168157       -0.01078894432198
H           -0.21826534718373       -1.53685644010500       -1.69278739912254
H           -1.03309458087278       -1.14540570207264       -0.16097285210890
H            0.50247123476902       -2.00777442242362       -0.14040119761536
H           -4.71997517127997        2.86418865777478       -0.15404487080658
H           -3.71275207984913        3.00744509158420        2.70748890791141
H           -4.87208779250478        1.82270046573313        2.10303240971962
H           -5.30700112947661        3.53257169285204        2.13736913235125
H           -2.62758809883562        4.64321637418879        1.11246826901461
H           -3.12725934212678        4.68277216363082       -0.58325659370102
H           -4.27039846449664        5.14727934933315        0.67325724658818
H           -0.63601955609789        2.84477029351426        2.69926234985308
