25
 energy: 54.515148927964 xtb: 6.6.1 (8d0f1dd)
C            2.96778699373944        1.19210945506016        0.07010425910641
N            2.20242120794994       -0.02412222489860        0.02576207807244
C            2.66498733146946       -1.26791712078597       -0.00231161084854
N            1.61843728931641       -2.13289624588354       -0.01764822289579
C            0.45873466370746       -1.39577011389614       -0.00556724321055
C            0.83410471080104       -0.06161167717236        0.01829644438435
C           -0.20175657221190        1.00047710389865       -0.03246168652053
O            0.10834972252661        2.18590673616611       -0.04403172243267
N           -1.45022779224510        0.52787618443720       -0.07563853032057
C           -2.35902994329309        3.97071849007015        0.02417041824769
C           -1.85319474395204       -0.71745564315016       -0.05558793834170
O           -2.98879496034637       -1.11933230105931       -0.06164734198420
N           -0.80409731290611       -1.79763613000797       -0.03857459552091
C           -1.19834524062790       -3.18007030838542       -0.06229441192875
H            3.21806969468703        1.44233219046541        1.11382928246292
H            3.88957186770934        1.08735072510460       -0.51017105044566
H            2.33256242993194        1.98692492377553       -0.34202558494017
H            3.69442418278437       -1.55564260196850        0.05542266043642
H           -1.29959636063234        4.02933653809346        0.04344138435357
H           -2.82663239540638        3.79317048340941       -0.91976468324952
H           -2.87737806134921        3.72524556697380        0.92369657460174
H           -0.84660880351774       -3.69467141193376        0.83376873483371
H           -0.81464715730661       -3.67528760532498       -0.95629983608177
H           -2.28470702139181       -3.20669834188887       -0.08315218532433
H            1.68534452178305       -3.13722300465564       -0.01596516535022
