25
 energy: -6.064713371221 xtb: 6.6.1 (8d0f1dd)
C            3.22293001705787        1.18503025760117        0.08905443641226
N            2.30142555651179        0.09766660054537        0.03281995031459
C            2.60715577264096       -1.24993712437093        0.03325498399360
N            1.42072378586516       -1.94928147458835        0.00120307066348
C            0.39626775571441       -1.07360041644008       -0.01020104825608
C            0.91144143200476        0.21532628927356        0.01115201141609
C            0.09937923257867        1.36904131377168       -0.00891349405397
O            0.46944762187870        2.54769526645763       -0.01207904620160
N           -1.29198905979296        1.04367266552042       -0.03148741129720
C           -2.19849177380269        2.19480795024921       -0.04435948917621
C           -1.83529537485090       -0.20881380263241       -0.04828680142592
O           -3.03203059144010       -0.40894589127970       -0.07028916008208
N           -0.94478352677001       -1.31353915813094       -0.03868901673595
C           -1.45805598484581       -2.66449245145519       -0.06073884540726
H            3.68562895330804        1.25461361971317        1.07792738901328
H            4.00321928822821        1.06288083934102       -0.66107247892868
H            2.66345888084441        2.09970428665397       -0.10640044281037
H            3.58545588367744       -1.67117526768733        0.04347136589366
H           -1.59625365772280        3.10115065932706       -0.01826770880316
H           -2.81003527941128        2.17737177530731       -0.94809725493682
H           -2.86260196896428        2.15786414309811        0.81973721923437
H           -1.14444911191726       -3.21522614621630        0.83018427898363
H           -1.11956782844299       -3.19503979214632       -0.95474377361625
H           -2.54446105965790       -2.59029905165970       -0.07536921465480
H            1.36218768129107       -2.95452327788484       -0.01197441547858
