25
 energy: 55.207767583268 xtb: 6.6.1 (8d0f1dd)
C            2.96963646872851        1.18657338859091        0.06922891010468
N            2.20416353632296       -0.03264416105883        0.03526309431344
C            2.66680283819447       -1.27793328628558       -0.00046802269613
N            1.61634146148054       -2.14256736619596       -0.01718724253865
C            0.45400989844249       -1.39605206362846       -0.00755734241346
C            0.83452629402847       -0.06698017394138        0.03995433973107
C           -0.21033843900377        1.01046552500726       -0.04440203776873
O            0.11840941788349        2.18506404538127       -0.11389605439166
N           -1.44941200530510        0.53514640781067       -0.07101602058536
C           -2.32340600809583        3.81304441219610        0.03657776737216
C           -1.85833056878156       -0.70871700113077       -0.04704761973838
O           -2.99694193026862       -1.10213384776094       -0.04437915082590
N           -0.80724526768935       -1.80070065497798       -0.04021090259056
C           -1.20549100671900       -3.18099192147334       -0.07073798392731
H            3.13122303783670        1.49297157428004        1.10422641540716
H            3.91274614471188        1.05999060872445       -0.46909890789799
H            2.38240878855131        1.96055440885035       -0.42433234136376
H            3.69766433555151       -1.57014576460689        0.05727640898095
H           -1.28654602544546        4.05078447478301        0.10946939946367
H           -2.78552340671405        3.79042716739980       -0.92506951553496
H           -2.91363176895205        3.70588241729605        0.91712616697582
H           -0.85824745448029       -3.70217609171212        0.82459386686169
H           -0.82039710356901       -3.67748693400361       -0.96422666688879
H           -2.29997658920189       -3.15896992519927       -0.09432897695611
H            1.70889902449859       -3.14807804175890        0.00959085652411
