25
 energy: -42.078455627308 gnorm: 0.007650477015 xtb: 6.6.1 (8d0f1dd)
C            2.66925775942486        0.85264971735057        0.95370094096286
N            1.99374316935540       -0.12900017187003        0.13295244791609
C            2.70144165398589       -1.03300481596149       -0.59917901431644
N            2.29108255638208       -1.88908700368030       -1.42354962465641
C           -0.17463844640236       -1.12652786486290        0.18359271764983
C            0.58145424777399       -0.01867537251914        0.02738458837612
C            0.08553702574273        1.27088717979416       -0.30500013328978
O            0.66617897750239        2.23937833998963       -0.68817345676521
N           -1.43152984075932        1.43835701557579       -0.09662672055965
C           -1.99530077359973        2.68268706945627       -0.63790464450484
C           -2.09510328324428        0.67637363301782        0.64028596963803
O           -2.63941983949634       -0.06159711788173        1.33888815658992
N           -0.74991564266811       -2.11196204464845        0.48639269264884
C           -1.37665027833673       -3.33131993532537        0.25517991741366
H            2.07157126233096        1.06253467694101        1.84107061027047
H            3.63605623424725        0.46307847710156        1.26435293699757
H            2.82246306405638        1.78640540230218        0.40586491314826
H            3.77204096962792       -0.99720235855550       -0.41906452090810
H           -1.20851009937875        3.15356111497126       -1.22835671369891
H           -2.85602598705762        2.46171040485930       -1.26484276170308
H           -2.28444099387645        3.35445317365528        0.16922308900913
H           -0.83265438650507       -4.10023531930061        0.80769209783379
H           -1.40634104916104       -3.59088280476184       -0.80550534463787
H           -2.38954062891199       -3.27859680025875        0.65981069639839
H            1.30967584310496       -1.95574605382025       -1.66701722192068
