72
 energy: -99.406401586150 gnorm: 0.007400478673 xtb: 6.6.1 (8d0f1dd)
N           -1.86961190505041        2.72146882774520        2.24718505156224
C           -1.82594303139110        2.09643269944483        1.16744131377202
C           -2.98926848423061        1.90975473289677        0.23255501276407
C           -3.47865887366614        0.46929643331579        0.31494462167550
C           -4.41479405775556       -0.00743074877117       -0.60544213557706
C           -4.88418780686981       -1.31018910353140       -0.55172066609971
O           -5.79329188010027       -1.84981557167298       -1.38983336771892
C           -6.45272349705005       -1.02829831470951       -2.32428631747755
C           -4.39445857172672       -2.19250300100951        0.44926808853140
O           -4.89855488635312       -3.44230218463770        0.41910252745011
C           -4.51651433217617       -4.36035983830738        1.41685844176011
C           -3.46721264782843       -1.71277573245604        1.35990720414058
C           -3.02067289624337       -0.39885422588826        1.29451114406467
C           -2.44973843012261        2.19568886811443       -1.19252336763103
C           -1.50194070179197        1.11416738234554       -1.74360623363874
C           -0.16903689002641        1.11005292986332       -1.09844367344054
N            0.48957731430116        0.02977039251113       -0.69353398551131
C            1.86564123726332        0.12966595883924       -0.26727635662374
C            2.83941833776207       -0.33237571624615       -1.36784232999023
C            4.25846012617822       -0.12986335423933       -0.91535843603584
C            4.89992922901589        1.07945250548127       -1.12875693330286
C            6.20098624337695        1.27978741973034       -0.69442808856322
C            6.88701364329517        0.27234672133471       -0.03143707180805
O            8.14911551422700        0.35261039584040        0.42854442425472
C            8.88224738730633        1.53822092029603        0.22229816266100
C            6.23475357707987       -0.97087388897866        0.19784428179111
O            6.97362762883213       -1.89384919574977        0.84492427441899
C            6.42745841064394       -3.16793533188537        1.08878328935286
C            4.93278779450656       -1.14676472669013       -0.24377440088795
C           -0.11163893801477       -1.28201908627406       -0.70254447272977
C           -4.17981497026881        2.86474954352803        0.54670741183059
C           -4.80679745658865        2.55313969407776        1.90390227872685
C           -3.78484949146167        4.33575179736686        0.49329889002317
H           -4.79383723787795        0.65136923330408       -1.36964695454420
H           -6.95384443727008       -0.18781418867898       -1.83518044625242
H           -7.19762668602242       -1.66602741463301       -2.79674620865777
H           -5.76496622639489       -0.65272022918390       -3.08891700296597
H           -4.76727129886103       -3.99429070545415        2.41679307518365
H           -5.08334609726531       -5.26659660282597        1.21244740919849
H           -3.44604060574270       -4.58451173361006        1.36701844735173
H           -3.09050694660615       -2.35247613288572        2.14145458610567
H           -2.32376539037149       -0.05429121790376        2.04267545125836
H           -3.29409063071452        2.28211515024380       -1.87524139896001
H           -1.93065645422373        3.15470738877093       -1.18791973300290
H           -1.98358939261178        0.13992516951812       -1.68187260607227
H           -1.34787437565609        1.34516658269119       -2.80562148083688
H           -0.90272162446207        1.63858547917606        0.75851224417103
H            0.38593481314958        2.03717652539292       -1.10367030099057
H            2.00996883200651       -0.48207235751990        0.62734196017005
H            2.09048630638776        1.16697213066435       -0.01036567577365
H            2.65040996085479        0.25251777949594       -2.26966127714871
H            2.66246467031168       -1.38432960305251       -1.59444529750352
H            4.39188818253658        1.87606039467052       -1.65084206723951
H            6.67647462814132        2.22808735400148       -0.88357039777623
H            8.41230152071653        2.39176101591455        0.72031333194983
H            9.00008185844221        1.75566571584000       -0.84347414431446
H            9.86025087139770        1.35694904581199        0.66382822164475
H            7.21097915963104       -3.72965245815195        1.59359317173304
H            5.54863687609572       -3.11034714498645        1.73911782744337
H            6.16164506223439       -3.67595696441282        0.15656063683321
H            4.43237933535774       -2.08865527322443       -0.08166828374910
H           -0.26482118584870       -1.63955511924099       -1.72301434287576
H           -1.07587554037804       -1.26361435500989       -0.18811215336529
H            0.54287166094494       -1.97920634035163       -0.18584115708325
H           -4.92970475185084        2.69347942533978       -0.22917415201787
H           -4.10485397339451        2.77636553728884        2.70067991353036
H           -5.09625145871704        1.50751991582880        1.97249969706417
H           -5.69449775691751        3.16501936499958        2.04200157114504
H           -2.98096366117891        4.54324321733536        1.18195620479824
H           -3.48233252789793        4.63885747418093       -0.50568679588143
H           -4.63736804990732        4.94581301169917        0.77952404405283
H           -1.01475852610958        2.80275324977334        2.78835034423419
