25
 energy: -42.042237746463 gnorm: 0.004279762886 xtb: 6.6.1 (8d0f1dd)
C            1.58462405538230        1.86721276897184       -0.93594896524965
N            0.76956087590845       -0.77516291010382       -1.12282433281045
C            6.49907070742188       -5.73599301284816        2.26260403665141
N            5.61968129029930       -6.44190775335973        1.91263575942493
C           -0.13129591007998        0.05788412821607       -0.76542682415221
C            0.19900439310857        1.42889511069668       -0.66332797520202
C           -0.77385478361081        2.43232579182151       -0.33007074769325
O           -0.54604103144303        3.62713893072828       -0.31016384848338
N           -2.06255862653518        1.95953634132766       -0.01152662695704
C           -3.06903305097765        2.93169146285414        0.38554274355532
C           -2.47083536867844        0.67151043678555       -0.05183033596698
O           -3.58184268868989        0.30559114799103        0.22639626521557
N           -1.48636188131380       -0.31100407474272       -0.46182195765514
C           -1.91149925985498       -1.55807565049738       -0.51333145073102
H            2.24342113130537        1.56410273009213       -0.11886039698531
H            1.96907063326541        1.38076522858095       -1.83139834128204
H            1.61838906380831        2.94957343892784       -1.03058683487485
H            6.91151766114876       -4.76917485998626        2.39602821902371
H           -2.65171872065443        3.92460939242310        0.23336367508704
H           -3.96812328148980        2.79640297704872       -0.21432277052802
H           -3.32676794657651        2.79076818796425        1.43557937153859
H           -1.25534870631197       -2.36142891940374       -0.79300466879370
H            0.53820036836965       -1.74941262914910       -1.25376608540271
H           -2.94179284248384       -1.74871873168981       -0.26231652001629
H            5.38496543312255       -7.41889099064121        1.84955023005840
