  72
        -99.40640122
 N         -1.7109109172        2.5845635059        2.5001274472
 C         -1.7098775400        2.0517087918        1.3714101604
 C         -2.8902993357        2.0010066804        0.4426733926
 C         -3.4579649435        0.5883976030        0.4177120921
 C         -4.4586916715        0.2576862522       -0.4985180693
 C         -5.0029781671       -1.0150069895       -0.5468693970
 O         -5.9740502497       -1.4179096732       -1.3918261615
 C         -6.5692133450       -0.4829520128       -2.2605203544
 C         -4.5287013514       -2.0137256835        0.3464345330
 O         -5.1049043316       -3.2260272964        0.2221360730
 C         -4.7332263238       -4.2529358926        1.1115545217
 C         -3.5395642420       -1.6769257635        1.2560533438
 C         -3.0136179222       -0.3917035766        1.2909388308
 C         -2.3533458022        2.3598650787       -0.9672722392
 C         -1.4712081367        1.2677138217       -1.5997244004
 C         -0.1265721741        1.1625393837       -0.9876190081
 N          0.5046245056        0.0275842412       -0.7064008099
 C          1.8928980538        0.0407910988       -0.3089183919
 C          2.8276848817       -0.3595617194       -1.4664064378
 C          4.2595003960       -0.2432168006       -1.0234891687
 C          4.9407762580        0.9564926258       -1.1495462964
 C          6.2506451607        1.0786074228       -0.7126913118
 C          6.9058232908        0.0008591012       -0.1343987495
 O          8.1717386233        0.0046996527        0.3222608950
 C          8.9425819571        1.1781953350        0.2017672497
 C          6.2135098535       -1.2341910611        0.0027776439
 O          6.9232983613       -2.2289227565        0.5714901703
 C          6.3335071195       -3.4980176971        0.7221212170
 C          4.9036945755       -1.3315424158       -0.4400547714
 C         -0.1398484138       -1.2581294346       -0.8265097199
 C         -4.0232524121        2.9871574507        0.8565546664
 C         -4.7196936405        2.5306484804        2.1381498711
 C         -3.5427575446        4.4262844330        1.0236715107
 H         -4.8298145521        1.0113890616       -1.1728962971
 H         -7.0294253946        0.3420423781       -1.7085306527
 H         -7.3415844738       -1.0330888857       -2.7945822828
 H         -5.8470393488       -0.0854855105       -2.9810874773
 H         -4.9403643567       -3.9779668942        2.1499992013
 H         -5.3421885484       -5.1119770532        0.8374028723
 H         -3.6745775014       -4.5113437986        1.0059135753
 H         -3.1744555099       -2.4075052179        1.9593580992
 H         -2.2659897032       -0.1599499249        2.0335197412
 H         -3.1997614053        2.5338247763       -1.6305785072
 H         -1.7855091786        3.2890226218       -0.9085763228
 H         -1.9994013861        0.3158564944       -1.5769438843
 H         -1.3293935992        1.5452503784       -2.6524180635
 H         -0.8158913644        1.5821927594        0.9114901521
 H          0.4613562630        2.0668593824       -0.9241663231
 H          2.0339821635       -0.6501412804        0.5268014268
 H          2.1623462424        1.0434886577        0.0292480553
 H          2.6443865237        0.3056333250       -2.3118870604
 H          2.6104465236       -1.3820315728       -1.7772503048
 H          4.4568589455        1.8078490777       -1.6036762680
 H          6.7567222107        2.0224767384       -0.8315045936
 H          8.5050645777        2.0050804632        0.7695019143
 H          9.0597190458        1.4744295106       -0.8448986611
 H          9.9172200465        0.9311588022        0.6181128855
 H          7.0985194057       -4.1234652494        1.1779749276
 H          5.4598040908       -3.4590650506        1.3807324444
 H          6.0462199430       -3.9244085352       -0.2440156051
 H          4.3726221433       -2.2660023913       -0.3475176927
 H         -0.3379706660       -1.5045412786       -1.8718216680
 H         -1.0858893627       -1.2644565840       -0.2791755654
 H          0.5078693794       -2.0236696285       -0.4070678201
 H         -4.7611950375        2.9777914732        0.0434791886
 H         -5.5031890514        3.2368375784        2.3987799640
 H         -4.0072051535        2.4914047104        2.9562130838
 H         -5.1696114440        1.5484242421        2.0155006931
 H         -2.8729326905        4.5003733357        1.8752345858
 H         -3.0337507367        4.7948931919        0.1367259299
 H         -4.3994128384        5.0693615086        1.2081462638
 H         -0.8457564889        2.5807012731        3.0308833963
