25
 energy: 0.000000000000 xtb: 6.6.1 (8d0f1dd)
C            3.23720163006194        1.16630919979326        0.08434469647475
N            2.29877817382611        0.07527477071623        0.03981603040599
C            2.58028210190900       -1.21425402444508        0.03006176031096
N            1.43813958087363       -1.93419271955128        0.00098261760884
C            0.39035688448383       -1.05887472636071       -0.00790371836672
C            0.93510056364412        0.21347819449412        0.01709077491437
C            0.09450143893243        1.40504303904423       -0.00410947031874
O            0.49712751527797        2.54126714362870       -0.00342325688240
N           -1.25076640035757        1.06271879480407       -0.03085478223738
C           -2.21907211982101        2.15522099834493       -0.05001256985998
C           -1.81739487048744       -0.20012725993278       -0.04692818574614
O           -2.99983886758376       -0.37846417018721       -0.07008878229737
N           -0.92618586207120       -1.30210215599479       -0.03682761578324
C           -1.46982264913417       -2.64643102187190       -0.06029820460571
H            3.71247264356769        1.21471455160235        1.06488849150277
H            4.00791497605742        1.03430808813993       -0.67357694370751
H            2.69910007168542        2.09770118228144       -0.09130154882931
H            3.56654120610678       -1.63682992603973        0.04233140067262
H           -1.67107961066214        3.09322851271934       -0.02552706933167
H           -2.82428953597071        2.09428624779827       -0.95318082946668
H           -2.87644029173232        2.07745725625962        0.81450067533302
H           -1.17061996399332       -3.19584890659852        0.83242232437030
H           -1.14560257411436       -3.17511610292205       -0.95688275822323
H           -2.55549792440841       -2.55659984320617       -0.07459039797972
H            1.38130855184625       -2.94313852034425       -0.01389874181052
25
 energy: -2.331884986956 xtb: 6.6.1 (8d0f1dd)
C            3.23293877326451        1.17734090442853        0.08605200565024
N            2.29589830054928        0.09312974609882        0.03781739268946
C            2.59837919664215       -1.23282864944208        0.03089230801401
N            1.45584887105855       -1.98337245392865        0.00090304490372
C            0.40289617526426       -1.08526008324919       -0.00859088291579
C            0.92005843148357        0.20981826682917        0.01501156328472
C            0.09443841361836        1.39572023571199       -0.00495866915821
O            0.49288549935137        2.56189995032204       -0.00342529182377
N           -1.26840930149222        1.06131990933444       -0.03124451116876
C           -2.22948453727744        2.16259315678307       -0.04999249880116
C           -1.82550264822037       -0.19227658064313       -0.04775564601483
O           -3.02306305259123       -0.37057589895409       -0.07125723707911
N           -0.93576927559611       -1.30110093594692       -0.03734017527811
C           -1.48501069247655       -2.63294224392843       -0.06013016610539
H            3.71516025313861        1.21969016694604        1.06651918332880
H            4.00071159535164        1.03797442918152       -0.67673513704105
H            2.69855388306790        2.10961196908960       -0.08812010537892
H            3.57786767052710       -1.64345568279222        0.04446254027859
H           -1.67369771636078        3.09804118015089       -0.02553043216635
H           -2.83820483522847        2.11353073384165       -0.95291542441001
H           -2.89047658744275        2.09683077878092        0.81413349131662
H           -1.17674188923964       -3.17856717190972        0.83264603550370
H           -1.15237790641097       -3.15830563941738       -0.95638627141234
H           -2.56991198220579       -2.53569982516784       -0.07399808398854
H            1.49522802916124       -3.03408765994702       -0.01302313608022
25
 energy: 5.163320400340 xtb: 6.6.1 (8d0f1dd)
C            3.22653716873502        1.18277298313061        0.08723415110339
N            2.28731589696389        0.10636666195509        0.03411943546103
C            2.60939871648549       -1.24407573987604        0.03271230361020
N            1.47387475192687       -2.03324792971521        0.00134294644762
C            0.41359801634859       -1.12027595998485       -0.00963054653099
C            0.89946236604218        0.19587491902536        0.01209342557631
C            0.09367949652542        1.37379275011691       -0.00584452873103
O            0.48330108056935        2.55607372101426       -0.00313510286006
N           -1.29199294553388        1.06503149104531       -0.03176705546544
C           -2.24153162537709        2.17724748234230       -0.05002111914905
C           -1.83099035486683       -0.17898022293643       -0.04870235779446
O           -3.03485602040291       -0.36222487016990       -0.07289779472927
N           -0.94752216003841       -1.29403179687163       -0.03794446112920
C           -1.50650585788016       -2.61425930879490       -0.05991568530112
H            3.71722118943488        1.22221987766737        1.06602335159470
H            3.99173429596825        1.04284180428800       -0.68056611236700
H            2.69852081253107        2.11942858409625       -0.08229774508342
H            3.58735063707339       -1.63864692823750        0.04782456246510
H           -1.67582988255809        3.10834455980534       -0.02546679356576
H           -2.85413825875943        2.13951498221779       -0.95221638865747
H           -2.90641438512971        2.12291495819583        0.81326957172467
H           -1.19128897611373       -3.15914613053749        0.83161331536811
H           -1.16805263486403       -3.13966573679966       -0.95468760867944
H           -2.59047749913884       -2.51185066075117       -0.07316589438217
H            1.66982083999491       -3.12699088805361       -0.01093997277798
25
 energy: 9.903056935980 xtb: 6.6.1 (8d0f1dd)
C            3.22302949322492        1.18249448666826        0.08719770964710
N            2.28496251942123        0.10531306771186        0.03207084607057
C            2.61089543575584       -1.24624423783801        0.03384424133851
N            1.48277377603510       -2.04972240736940        0.00183638578931
C            0.41820805356332       -1.13621213172380       -0.01023849676605
C            0.89437972831864        0.18502088021582        0.01094071448117
C            0.09357537767199        1.36382463227515       -0.00596983293522
O            0.48049671925094        2.54466879168889       -0.00281805970395
N           -1.30133239666660        1.07065646927588       -0.03212077497665
C           -2.24690152497511        2.18558183442677       -0.05020247901421
C           -1.83229558189515       -0.17422266312217       -0.04935400116110
O           -3.03480172537025       -0.36444763404793       -0.07412622868050
N           -0.94913944575009       -1.28952545720669       -0.03821099594388
C           -1.51769641354267       -2.60643873653208       -0.05966533144870
H            3.71603660825851        1.22140760386102        1.06478077899170
H            3.98627227160723        1.04751888913682       -0.68322135099498
H            2.69640090100861        2.12185458350834       -0.07786846398243
H            3.59352234846321       -1.63302108512435        0.04964594722751
H           -1.67851167741963        3.11475289337054       -0.02552148905812
H           -2.86097770933524        2.15133334244781       -0.95177162275370
H           -2.91317545938257        2.13469615117419        0.81247667132169
H           -1.20353038499335       -3.15197711910696        0.83161730894155
H           -1.18117309668266       -3.13312909538126       -0.95420783065878
H           -2.60138704648794       -2.50004645256901       -0.07242862045323
H            1.75258389785792       -3.15510800356767       -0.00965112913033
25
 energy: 10.715007100001 xtb: 6.6.1 (8d0f1dd)
C            3.22216928762637        1.18106059278147        0.08703579162650
N            2.28551826868010        0.10173283643703        0.03125400117839
C            2.60858395281819       -1.24590745406484        0.03451036037669
N            1.48363607154588       -2.05107678827765        0.00217997702134
C            0.41868270723942       -1.13935541540281       -0.01048356331512
C            0.89521846590280        0.18103759577802        0.01061461185251
C            0.09409775224975        1.36227275303319       -0.00596994252259
O            0.48088467840582        2.53965014273796       -0.00249452342262
N           -1.30261591527243        1.07373039018993       -0.03228746416351
C           -2.24786859294543        2.18765772557835       -0.05033486273609
C           -1.83274373906124       -0.17323510471208       -0.04965364052113
O           -3.03335954807971       -0.36678930662942       -0.07470359170737
N           -0.94825483564895       -1.28721397851133       -0.03824117936738
C           -1.52023855657732       -2.60484311316817       -0.05948294136466
H            3.71506324019003        1.21986618009863        1.06421394538782
H            3.98438997891265        1.04956138839013       -0.68445990468139
H            2.69437233769104        2.12068806976292       -0.07598743877871
H            3.59384013586672       -1.63029040585783        0.05005096184633
H           -1.68005708258189        3.11677594969304       -0.02562016582709
H           -2.86199331201096        2.15305916589019       -0.95182299783010
H           -2.91411618669929        2.13639250352865        0.81232800255825
H           -1.20733438366083       -3.15055939914463        0.83184363306845
H           -1.18543197763488       -3.13194006205299       -0.95415150741827
H           -2.60382010053520       -2.49757383856036       -0.07203308728166
H            1.77359202151558       -3.15567182534539       -0.00927057783131
25
 energy: 10.548906634652 xtb: 6.6.1 (8d0f1dd)
C            3.22194678723074        1.18006570803275        0.08693984321966
N            2.28638138223160        0.09914620259472        0.03072301414820
C            2.60613433657638       -1.24555417719959        0.03528064115534
N            1.48214387292882       -2.05009312155907        0.00250909818270
C            0.41793202459627       -1.13949152093892       -0.01066804383266
C            0.89635631905159        0.17975762752380        0.01035305506226
C            0.09467421675418        1.36236875490315       -0.00607095595738
O            0.48163395262780        2.53803766445386       -0.00222224010735
N           -1.30206357232882        1.07463722091422       -0.03238709765740
C           -2.24744509327154        2.18764645738902       -0.05037544702252
C           -1.83327489209212       -0.17308305756155       -0.04978832959413
O           -3.03284128106985       -0.36744758532531       -0.07495506139999
N           -0.94785154279566       -1.28608594215496       -0.03822273505710
C           -1.52027965053489       -2.60485672391758       -0.05940512912219
H            3.71463122860300        1.21866620680912        1.06395447962844
H            3.98376625623266        1.05027231859076       -0.68495292140589
H            2.69284886430724        2.11922765392869       -0.07527422429824
H            3.59245544546911       -1.62915714471139        0.04993225350448
H           -1.68054512689055        3.11720387118577       -0.02566272210439
H           -2.86159835921327        2.15261425192389       -0.95186773615448
H           -2.91362249461998        2.13591904323338        0.81237093586831
H           -1.20735891820073       -3.15017362140706        0.83195188960619
H           -1.18570758629370       -3.13157201460719       -0.95418600728965
H           -2.60380243520292       -2.49793633086892       -0.07185360192784
H            1.77770093384082       -3.15108313905954       -0.00908906129708
25
 energy: 10.317581805110 xtb: 6.6.1 (8d0f1dd)
C            3.22189926091776        1.17985309879457        0.08692237730803
N            2.28680126471142        0.09841741563297        0.03039703545585
C            2.60516471859857       -1.24569544134931        0.03601066002306
N            1.48096332222031       -2.04986568119476        0.00274444003214
C            0.41740857682694       -1.13921477512408       -0.01080302264405
C            0.89666210237951        0.17981702652625        0.01014794392167
C            0.09494227789545        1.36250021957250       -0.00616687507434
O            0.48189421313327        2.53819075078233       -0.00213354258761
N           -1.30161303338249        1.07439947746136       -0.03242520283239
C           -2.24698420028509        2.18728059251248       -0.05036701855527
C           -1.83359580594871       -0.17309836041878       -0.04980395329922
O           -3.03301506047578       -0.36721537684907       -0.07497528611951
N           -0.94798052089864       -1.28586010575806       -0.03819874513250
C           -1.51990627253463       -2.60511234195382       -0.05940762612638
H            3.71456594026483        1.21829622914890        1.06391555036289
H            3.98376955391289        1.05039014420955       -0.68497378966696
H            2.69223658031766        2.11864129587559       -0.07517355198788
H            3.59160126863508       -1.62923630652306        0.04952610127083
H           -1.68040206475903        3.11708309453306       -0.02565621302102
H           -2.86122595921660        2.15224644600335       -0.95185313372396
H           -2.91319240033264        2.13553203551502        0.81241420994347
H           -1.20657030618834       -3.15013617892399        0.83192392541478
H           -1.18499082755220       -3.13148093263490       -0.95421218392768
H           -2.60341751594482       -2.49860424807317       -0.07182605927052
H            1.77719955564148       -3.14809947559292       -0.00899214361615
25
 energy: 10.103346623590 xtb: 6.6.1 (8d0f1dd)
C            3.22185101944493        1.17980884448684        0.08694692777621
N            2.28709730750673        0.09811894919912        0.03002657539378
C            2.60461784617777       -1.24607585277297        0.03715385489628
N            1.47998056113673       -2.05015521432967        0.00304558539293
C            0.41707654586478       -1.13900913808212       -0.01098880724765
C            0.89671235125442        0.18011058772315        0.00990313270035
C            0.09511971465274        1.36250350507405       -0.00627431468657
O            0.48193788851439        2.53857666756278       -0.00213196439308
N           -1.30134225636996        1.07398279837917       -0.03246119174376
C           -2.24662291434962        2.18698722033913       -0.05035817435343
C           -1.83382537952869       -0.17312086048208       -0.04979006984882
O           -3.03329851880894       -0.36691972891156       -0.07492495876111
N           -0.94819416142138       -1.28583939015321       -0.03816658337726
C           -1.51959890626876       -2.60532587797558       -0.05942574028043
H            3.71453052510815        1.21814581875535        1.06395449606791
H            3.98391152811673        1.05049004436169       -0.68485913860480
H            2.69182496091667        2.11828644854129       -0.07514134619171
H            3.59102863659880       -1.62966473943473        0.04864379296461
H           -1.68011034207751        3.11689788203632       -0.02564523613680
H           -2.86094874452327        2.15206314751015       -0.95183071831627
H           -2.91287364098390        2.13533169712043        0.81243800533698
H           -1.20588793947206       -3.15016861616847        0.83186306648480
H           -1.18433906768017       -3.13144965518201       -0.95423107819555
H           -2.60311220686448       -2.49913175910982       -0.07182704273333
H            1.77667986099211       -3.14541417631523       -0.00888517599598
25
 energy: 10.028621735677 xtb: 6.6.1 (8d0f1dd)
C            3.22183305865445        1.17985557912962        0.08702789936781
N            2.28710101271608        0.09826516648034        0.02982067728358
C            2.60471373973006       -1.24639195772907        0.03851056856288
N            1.47980794589721       -2.05070827649076        0.00331932585629
C            0.41714603756572       -1.13900950659828       -0.01117631336676
C            0.89656977877280        0.18029686332583        0.00974573057013
C            0.09511716223391        1.36239840558035       -0.00635998683318
O            0.48177034371889        2.53874151409806       -0.00224223238088
N           -1.30142079474578        1.07380049015836       -0.03249522024801
C           -2.24662418228684        2.18699759569218       -0.05036581978256
C           -1.83379101158866       -0.17314691890552       -0.04976755161090
O           -3.03338760082130       -0.36691043767447       -0.07483131448747
N           -0.94826039301202       -1.28599586139325       -0.03815746166211
C           -1.51961181025331       -2.60534365738015       -0.05944344374396
H            3.71448782504867        1.21822433098504        1.06408480941480
H            3.98407372075003        1.05053209050468       -0.68467532520105
H            2.69184599941847        2.11831237345115       -0.07514757870150
H            3.59107434035483       -1.63003114164286        0.04730116068878
H           -1.67991386093881        3.11679895853521       -0.02565177182114
H           -2.86094077727429        2.15215148901616       -0.95183707174759
H           -2.91286732381679        2.13541066474171        0.81242944840134
H           -1.20591327796209       -3.15025182755155        0.83183589001150
H           -1.18434211446058       -3.13152079722505       -0.95424072920757
H           -2.60313308963286       -2.49910001402815       -0.07184605842701
H            1.77687993986837       -3.14434652290755       -0.00880373478810
