25
 energy: 155.770929548592 xtb: 6.6.1 (8d0f1dd)
C            3.16876476158573        1.11418164164655        0.15835429518086
N            2.24958104467792        0.03147665465908        0.08508986344738
C            2.57169997215836       -1.26549911055150        0.03680771351059
N            1.45418944551649       -2.02035707114192       -0.02554239419983
C            0.40271927415848       -1.16285554637577       -0.01630115592729
C            0.85418267518979        0.18022614279516        0.04479056434418
C            0.04905190846621        1.33884280614701        0.04067012909882
O           -0.69586089713499        3.71436043752986       -0.13863245068970
N           -1.29426601935555        0.94960142463618        0.00250612819188
C           -2.19604373588875        1.94927101726278        0.11284323473197
C           -1.81571390189728       -0.39246840597459       -0.04988574588347
O           -3.00983220952380       -0.61196825490304       -0.04665955178290
N           -0.91698140158243       -1.45162827174768       -0.06470376672995
C           -1.38600479640258       -2.82171956111526       -0.12485764392747
H            3.44440090650692        1.30501243827942        1.19808276588973
H            4.06842152003334        0.90178010623883       -0.41964858102380
H            2.64461926244347        1.97317007158181       -0.24953190300738
H            3.55425575068496       -1.68591604042749        0.02788588912771
H           -1.45186109212211        4.50384885089794       -0.47984142584279
H           -3.22606569209948        1.75361046452766        0.20633402959510
H           -1.74100844932392        2.89405163602823        0.50407663061889
H           -1.02330928038397       -3.40283619868935        0.72533472216831
H           -1.06227273936058       -3.30711162420572       -1.05031999871533
H           -2.47537664159085       -2.81224129929620       -0.09434063400305
H            1.42203749768636       -3.02981520869832       -0.06781865184537
