25
 energy: 130.492248331346 xtb: 6.6.1 (8d0f1dd)
C            3.18207101406961        1.12342305222253        0.15710773943574
N            2.25014562208231        0.05399968148258        0.08320750398362
C            2.56646377338315       -1.25306172913651        0.04785105652563
N            1.43773498875693       -1.98432051261690       -0.02381154549442
C            0.39257167925780       -1.09547620982389       -0.02188447263363
C            0.84720748157198        0.27587215176250        0.03090255842169
C           -0.01334381517769        1.52854356343774        0.01916533655875
O           -0.10545726778974        2.83964810646603        0.02595348437457
N           -1.35065055122561        0.97138506472040       -0.03654925954387
C           -2.23937227795568        2.01071002238169        0.05171449127726
C           -1.83083588675537       -0.36345700368356       -0.05990151573639
O           -3.01802771702840       -0.60876345310976       -0.04468698183043
N           -0.91986965505274       -1.42287489655819       -0.06764949346528
C           -1.38821779306628       -2.79711180037616       -0.11921663181713
H            3.47425688466734        1.30907364103486        1.19310940812903
H            4.07302988244686        0.91756667398907       -0.43793680025649
H            2.66287135872446        1.98973589728593       -0.24132363722096
H            3.55293529912054       -1.67276777867867        0.03211039135959
H           -1.77400871173264        4.58460914079256       -0.60288979223636
H           -3.25290627058146        1.77865482347776        0.11997921819512
H           -1.85536726413760        2.88522106365330        0.58626543732562
H           -1.03333745190772       -3.37815207997874        0.73519532025935
H           -1.06629347768964       -3.29054480763361       -1.04110046607362
H           -2.47942622502999       -2.78713556554491       -0.09192621977497
H            1.40661646692188       -2.99705605015960       -0.06558274045214
