25
 energy: 130.191290625251 xtb: 6.6.1 (8d0f1dd)
C            3.16600029275895        1.05917195375556        0.14215595629412
N            2.27691845193133       -0.06366929270771        0.06705043926477
C            2.61477759722421       -1.35935526612684        0.02352190393048
N            1.49712594387515       -2.12000718761490       -0.02860608256075
C            0.41983201300173       -1.29404588185731       -0.01292128529078
C            0.88740265462593        0.02991684831632        0.05016154050763
C            0.10028873350722        1.17092495394480        0.04982913697888
O           -0.87304199995586        4.35110361192820       -0.02000905237374
N           -1.25395288970353        0.84394512102723        0.01398712890218
C           -2.11881562707759        1.84763145575735        0.03688964958863
C           -1.80568784637813       -0.48417682912711       -0.02571459415359
O           -3.00163299659934       -0.68283364858133       -0.04041828840745
N           -0.91239929572099       -1.55165115241632       -0.04873326074019
C           -1.40828227052834       -2.91057607195851       -0.12606335875123
H            3.48125361972193        1.23807553265640        1.17212852066558
H            4.04729883313332        0.89473217230371       -0.47662690767084
H            2.61933103382544        1.93461823136225       -0.20372293894360
H            3.61183178360640       -1.74655583901465        0.02781192588266
H           -1.35085432215164        5.15787136820479       -0.23297427756643
H           -3.16967264238208        1.61311443790198       -0.03709847911949
H           -1.69663333316111        2.88506740046077        0.02262687673136
H           -1.04655173792206       -3.49417590258597        0.72293356075305
H           -1.09156746287023       -3.37702870900784       -1.06135357310751
H           -2.49563420862912       -2.86501751009848       -0.09812576325224
H            1.48803339320409       -3.12782538442933       -0.06976779895692
