25
 energy: 134.205975153077 xtb: 6.6.1 (8d0f1dd)
C            3.16975933642351        1.05916049008395        0.14134827254335
N            2.27850022945633       -0.05838877654732        0.06222607562363
C            2.60357862128584       -1.36022923757293        0.03384672119293
N            1.47668792361915       -2.10317912337074       -0.02679139803546
C            0.41189183754246       -1.26529997302082       -0.01716968426184
C            0.89359738426328        0.05728751945968        0.04405894424988
C            0.12104221499279        1.21776162212252        0.08136296532288
O           -1.00557714664214        4.14613342360276       -0.06038135698052
N           -1.24871276215842        0.85208343909191        0.02077813919302
C           -2.17504409277070        1.79960765517746        0.02745575464311
C           -1.79800983378537       -0.47663476485367       -0.03105883238127
O           -2.99440129988517       -0.67761388243275       -0.04252733914302
N           -0.91255057256753       -1.53995088059640       -0.04790200729235
C           -1.40528722156350       -2.89846223024774       -0.12650356950675
H            3.48765328974263        1.23443688259819        1.17411041835377
H            4.05143873361455        0.89275136104735       -0.48055155528070
H            2.62281020615145        1.93717233042343       -0.20061636329023
H            3.60108586270003       -1.74302988745292        0.02548816852910
H           -1.09652067837391        5.11619139461582       -0.12450670611734
H           -3.23083941721461        1.53263850411836       -0.11161573562644
H           -1.75828286131017        2.84617904746152        0.05656804584488
H           -1.04162159773136       -3.47939720024361        0.72176365656567
H           -1.09639247581817       -3.36956224717297       -1.06230799035863
H           -2.49236540999282       -2.85888262140355       -0.09578606000711
H            1.46556637204131       -3.10896736464327       -0.06964088018338
