25
 energy: -1.113675798686 xtb: 6.6.1 (8d0f1dd)
C            3.23334186173074        1.16852315598475        0.10456620026027
N            2.29515190931688        0.10016160983082        0.04026093255809
C            2.60064130423313       -1.24972936010327        0.03374181524823
N            1.41250030594848       -1.94330237619611       -0.00797872791184
C            0.39808191084633       -1.05433711100546       -0.01423806604990
C            0.90475000449327        0.25181744171500        0.01816581560549
C            0.08687197128052        1.42709634103462        0.01317162570562
O            0.35889445425531        2.63518188844488        0.00195122482954
N           -1.28700994005796        1.04880189264624       -0.03107988227786
C           -2.16979032517726        2.22220872917462       -0.07074752553097
C           -1.82950735242458       -0.20961447645394       -0.03873070227491
O           -3.02624435309439       -0.41497800392300       -0.06038213261150
N           -0.93988907649694       -1.31274996244243       -0.03898582229500
C           -1.45777491246428       -2.66505446678916       -0.07068350688617
H            3.67939822695098        1.23552056803396        1.10143967135265
H            4.02691312465663        1.01717162725618       -0.63143214364003
H            2.68780070578018        2.08390520498647       -0.11424466555002
H            3.57784079439829       -1.66934183782664        0.03998120071108
H           -1.63827052813076        3.20450854716465       -0.23484450529171
H           -2.93924838774148        2.01898745174465       -0.81274742269399
H           -2.69850974777733        2.28197950909468        0.87156398518932
H           -1.14621915013841       -3.22693338412579        0.81410110327575
H           -1.13066618397025       -3.19323964386488       -0.97072804818030
H           -2.54464529052590       -2.59541265781561       -0.07832525835669
H            1.35535096110504       -2.94997922237603       -0.02835582023368
