25
 energy: 142.124590727870 xtb: 6.6.1 (8d0f1dd)
C            3.16581724337404        1.09662974080208        0.15222198050569
N            2.25953313152970       -0.00210462338873        0.05605973967134
C            2.59382220411926       -1.30103884518053        0.02238256168351
N            1.46315107437044       -2.04492901507609       -0.02630319834434
C            0.40823463244848       -1.20269762826696       -0.02216440439585
C            0.86940688061067        0.13287183763356        0.03459347808492
C            0.08698411150491        1.29951058239707        0.06284169965340
O           -0.86397887616239        3.94429835114861       -0.05605773019720
N           -1.29096350808654        0.90878253758147        0.04775110755098
C           -2.20267861413369        1.86998593077282        0.07145068401971
C           -1.80699644829841       -0.44012957143790       -0.00886488700933
O           -3.00145395470343       -0.65142315154711       -0.03969571685667
N           -0.91373392199824       -1.49488573220883       -0.06077651553666
C           -1.37178085095943       -2.86982655603793       -0.13555324844210
H            3.41639064173136        1.28427864614736        1.20017286165455
H            4.07137533646927        0.88458126970142       -0.41325555262140
H            2.64230891456191        1.97197199147565       -0.22484269849774
H            3.58233378878229       -1.71509071031515        0.02927737501813
H           -1.39797621038064        4.85329420518667       -0.28288641382007
H           -3.24235006477584        1.67326118131800        0.29128590285110
H           -1.67030909377526        2.94925264209336        0.10725511351488
H           -0.98396948645367       -3.45491163225173        0.70092262943315
H           -1.05670240850754       -3.33889148677102       -1.07045553137726
H           -2.45882817685285       -2.87906719970994       -0.09065348396240
H            1.45029073645513       -3.05483979306299       -0.07168923693768
