25
 energy: 79.994668845895 xtb: 6.6.1 (8d0f1dd)
C            3.19560014969956        1.13467914030639        0.14390033810573
N            2.26575326989187        0.05747724993301        0.06400973634394
C            2.58896624345954       -1.28809595072374        0.05433755133926
N            1.41013817003740       -1.97644274826099       -0.02826982227815
C            0.38646230381824       -1.07604743368008       -0.01907287642012
C            0.86643737021648        0.25757077424714        0.03772550854842
C           -0.01910890620043        1.49636468014131        0.01142605956858
O            0.02683952046826        2.75782011065458        0.03674442481952
N           -1.35185123950554        1.03511494118331       -0.11318208358698
C           -2.21000809474280        2.28393091730436       -0.07996040164516
C           -1.85644058910381       -0.27760122943990       -0.07938559049914
O           -3.04166317042098       -0.53329932837779       -0.04593052475642
N           -0.94392742889699       -1.37082991185091       -0.05410328570157
C           -1.41612013732533       -2.74464051639950       -0.10562578454732
H            3.54617367035362        1.28793365779284        1.17343931032373
H            4.06196615912575        0.95155180220951       -0.50076605661456
H            2.66619361403918        2.02163003209432       -0.20136960018416
H            3.56891780978587       -1.71806847515921        0.01450893333198
H           -1.86701929526573        3.80771153170249       -0.61984381114349
H           -3.19666578443703        1.90356454999403       -0.24878301168612
H           -2.12979372039561        2.76756970873897        0.88201347377979
H           -1.07208905691974       -3.32449412932726        0.75678919533501
H           -1.08621429191730       -3.25023406950010       -1.01997736682247
H           -2.50545668246356       -2.72693345573664       -0.09078958635673
H            1.37605547944982       -2.98726854104191       -0.06726339374357
