25
 energy: 112.083153747544 xtb: 6.6.1 (8d0f1dd)
C            3.19343517381971        1.12845475885233        0.14804888602261
N            2.26350532214610        0.04920198602444        0.07448064133541
C            2.58192326785005       -1.27578220456522        0.05186702769851
N            1.42325965627610       -1.98057454052894       -0.02808162861092
C            0.38890480855279       -1.08153150874196       -0.02118561129917
C            0.86469161683535        0.25758885767300        0.02500397327736
C           -0.02312668238440        1.51943412804675        0.00606553937892
O           -0.01828292022657        2.78534228384774        0.02268244451407
N           -1.34968929704494        1.00459249401667       -0.07803976568578
C           -2.23038189787465        2.13991652345669       -0.02456457081310
C           -1.84794673916163       -0.31412959871892       -0.07030936921077
O           -3.03095059765104       -0.56581158931752       -0.04023919698836
N           -0.93206261756658       -1.39149688469866       -0.06022569973262
C           -1.40601463681250       -2.76350971293927       -0.11054397812066
H            3.52475146272704        1.29483240261339        1.18005604427479
H            4.06936896442743        0.93701284083231       -0.47891817890644
H            2.67104543016108        2.01058841475763       -0.21727372288936
H            3.56546972543977       -1.70151347589667        0.02393661958133
H           -1.85809269018398        4.18895127637776       -0.65598996387871
H           -3.23697039931184        1.84463345904556       -0.11944259477874
H           -2.02002514356578        2.82400607648626        0.78309199621739
H           -1.06030112538501       -3.34229878713511        0.75005607304866
H           -1.08025548182830       -3.26338099786095       -1.02801175684904
H           -2.49636747448852       -2.74329262407993       -0.09146755496427
H            1.39272697527485       -2.99087544924862       -0.06703481049029
