25
 energy: 13.623254666932 xtb: 6.6.1 (8d0f1dd)
C            3.21970568357474        1.15547451212210        0.11816369000965
N            2.28001537395491        0.08368399804648        0.04339705081444
C            2.59597497700856       -1.27124361086719        0.03953288588429
N            1.39931714669131       -1.95573727402690       -0.01274626812874
C            0.38855890506752       -1.05604597425716       -0.01543404488367
C            0.87979422123049        0.26738198473050        0.02679889668321
C            0.04834328312046        1.46745695428149        0.00827099427782
O            0.22301852055359        2.70155443442274        0.02183224739263
N           -1.31783169712851        1.06647974195375       -0.07054555318102
C           -2.15948911196385        2.30327796309436       -0.11278961005578
C           -1.84258739816555       -0.21761580105515       -0.05548921042746
O           -3.03555493321446       -0.44955879724020       -0.05466143232955
N           -0.94655902182290       -1.32444146316592       -0.04450917657968
C           -1.44619540202528       -2.68716146695514       -0.08485569302373
H            3.63819640823128        1.25304021383724        1.12620832623230
H            4.03778269806085        0.99549692692479       -0.59115692970471
H            2.67537904170548        2.06086896756388       -0.14293095665093
H            3.57577106366756       -1.69594597950304        0.03695541499524
H           -1.68715042932580        3.33282010514608       -0.43856849512348
H           -3.05584752170250        1.97300012593462       -0.64954154480662
H           -2.50881016920847        2.47718519306972        0.90242849006867
H           -1.12625001633702       -3.25857931810713        0.79222336287332
H           -1.11548416387037       -3.20816063320834       -0.98930917942674
H           -2.53370763514467       -2.63622058157657       -0.08806301374390
H            1.34438232438958       -2.96443766784398       -0.04270493779788
