25
 energy: 130.235299765292 xtb: 6.6.1 (8d0f1dd)
C            3.16104311396081        1.06511007824479        0.14009190698768
N            2.27879406947626       -0.06346113870841        0.06795232935547
C            2.61424974782698       -1.36048579808687        0.02449625594665
N            1.49537451538320       -2.12076384806345       -0.02869057679067
C            0.42129041595733       -1.29299302142773       -0.01317579703152
C            0.89192474147466        0.02973449012769        0.05056054672162
C            0.08708600117496        1.15745824866519        0.05407059873255
O           -0.89532050625784        4.35742340174127       -0.01529659720587
N           -1.25784775162756        0.84361405148778        0.01330014039047
C           -2.12665857647020        1.84824740666344        0.01013484696746
C           -1.80671935936134       -0.48592194238931       -0.02709455320268
O           -3.00176092650214       -0.68123761116074       -0.04355630084790
N           -0.91069707301659       -1.54923433650593       -0.05112440390075
C           -1.40945132894486       -2.90776179871706       -0.12632300447087
H            3.47649563876343        1.24254754942896        1.17045415817074
H            4.04343228638987        0.89990851162693       -0.47758210292975
H            2.61258862454760        1.94044773702793       -0.20683584021108
H            3.61166449023252       -1.74360056384502        0.02663049362083
H           -1.33590194223413        5.17772654017560       -0.23011197384263
H           -3.18000432453683        1.62032215373885       -0.02051496913578
H           -1.70464752406857        2.87475358274082        0.01477605538410
H           -1.05044995079451       -3.49113923781188        0.72335321565871
H           -1.09434723495516       -3.37742719541726       -1.06034331652774
H           -2.49689661132064       -2.86531395018145       -0.09764601680256
H            1.48897376987529       -3.12892452061010       -0.07049118284225
