  72
        -99.28997077
 N         -1.2734664255        3.0936632185        1.0729369325
 C         -2.3894085191        2.6225853157        1.0951799737
 C         -3.5801800267        2.3567790932        0.4094782466
 C         -3.8644926070        0.8736904288        0.3063194832
 C         -4.9456633365        0.4219951468       -0.4498563525
 C         -5.2443101687       -0.9268000638       -0.5410125368
 O         -6.2649182035       -1.4529200263       -1.2487545459
 C         -7.1415669049       -0.5927085584       -1.9376552549
 C         -4.4428429454       -1.8694714584        0.1559299955
 O         -4.8177669026       -3.1598950337        0.0226218347
 C         -4.1261617735       -4.1506301941        0.7440568115
 C         -3.3686506550       -1.4116445542        0.9003799898
 C         -3.0809656743       -0.0540791032        0.9713530665
 C         -3.4591833896        2.9864959917       -1.1693818157
 C         -2.7707270377        2.1479339169       -2.0872654305
 C          0.1965114578        0.5419942758       -0.5451984765
 N          0.8674374505       -0.5264183326       -0.1396986075
 C          2.2818719299       -0.4607111152        0.1273639955
 C          3.1305288875       -0.8099759132       -1.1126795518
 C          4.5844625990       -0.5815314040       -0.8102683139
 C          5.1571101102        0.6634745271       -1.0097610153
 C          6.4889189051        0.8904628592       -0.6985073664
 C          7.2743436561       -0.1260919873       -0.1756668499
 O          8.5750329725       -0.0199025323        0.1612572182
 C          9.2358154504        1.2077639480       -0.0389237864
 C          6.6949899055       -1.4066920316        0.0353656144
 O          7.5298134819       -2.3368726398        0.5440786760
 C          7.0563394875       -3.6459328413        0.7501995152
 C          5.3615762817       -1.6095457214       -0.2813379635
 C          0.2465038286       -1.8203464438       -0.0713013549
 C         -4.7555892358        3.0825261015        1.1316748744
 C         -4.8912658209        2.5382784734        2.5549583556
 C         -4.5816151808        4.5979869899        1.1666691739
 H         -5.5615788665        1.1332353872       -0.9741012748
 H         -7.6518341182        0.0922115766       -1.2534710781
 H         -7.8765797442       -1.2423985313       -2.4085365980
 H         -6.6198168699       -0.0198597387       -2.7107506366
 H         -4.1682583616       -3.9660474622        1.8219723430
 H         -4.6362803287       -5.0850574757        0.5191309195
 H         -3.0808906090       -4.2248279348        0.4259159330
 H         -2.7547183560       -2.1056396356        1.4518451569
 H         -2.2458110153        0.2761071950        1.5725654356
 H         -4.5093319240        3.1109430271       -1.4204722595
 H         -2.9705226509        3.9455830491       -1.0293805207
 H         -3.2521228175        1.2897824772       -2.5217906418
 H         -1.7170708517        2.2665784951       -2.2545833616
 H         -0.8410712196        0.4626557397       -0.8049764969
 H          0.6945669083        1.4900788058       -0.5976437889
 H          2.5246421209       -1.1531832967        0.9370359991
 H          2.5376701587        0.5513743525        0.4481550510
 H          2.8170656670       -0.1729037743       -1.9413949713
 H          2.9643371225       -1.8506965931       -1.3929574547
 H          4.5685654796        1.4683031908       -1.4236541620
 H          6.9081604305        1.8678054690       -0.8722045861
 H          8.7896101497        2.0061212500        0.5621363395
 H          9.2311401792        1.4982876401       -1.0937763649
 H         10.2615578018        1.0433435517        0.2851563295
 H          7.9053183158       -4.2059957235        1.1373087570
 H          6.2442575941       -3.6690007406        1.4841312108
 H          6.7181885638       -4.1023884241       -0.1852395453
 H          4.9130287249       -2.5791143300       -0.1308476495
 H          0.7178111774       -2.5108485213       -0.7740425082
 H         -0.8113918734       -1.7398756956       -0.3116404782
 H          0.3549575486       -2.2314556681        0.9349422629
 H         -5.6731895730        2.8440132782        0.5865042248
 H         -4.0201610244        2.8050420369        3.1507905828
 H         -4.9910247237        1.4552505990        2.5525605108
 H         -5.7725838078        2.9617739026        3.0296146504
 H         -3.6363262256        4.8708996138        1.6311225232
 H         -4.6179554365        5.0328389103        0.1719955839
 H         -5.3859469951        5.0380444899        1.7512589723
 H         -0.6427149638        3.1733177966        1.8555031742
