  25
        -42.10458825
 C          3.2387492487        1.1258468761        0.0160786837
 N          2.2819380503        0.0518737559        0.0077479863
 C          2.5453269956       -1.2517561159        0.0153219849
 N          1.3882519787       -1.9539739659        0.0192598866
 C          0.3548891092       -1.0655286569        0.0151775902
 C          0.9122160831        0.2072939328        0.0099284070
 C          0.1150145735        1.3965314267       -0.0037376617
 O          0.4965128984        2.5451725783       -0.0300467741
 N         -1.2882383822        1.0826422456        0.0197254975
 C         -2.1459565308        2.1140031957        0.0518846353
 C         -1.8582150923       -0.2213306425        0.0054922085
 O         -3.0477217652       -0.3799364696       -0.0059400130
 N         -0.9735896821       -1.2971121960        0.0070262377
 C         -1.5121078238       -2.6459330825       -0.0013502057
 H          3.7052859470        1.2103529788        0.9989710805
 H          4.0135959566        0.9457402304       -0.7271768312
 H          2.7214742138        2.0584788116       -0.2055106075
 H          3.5241592227       -1.6877829440        0.0149173676
 H         -1.7326665313        3.1044260116        0.0637762083
 H         -4.0983605672        3.4564680949       -1.6965437255
 H         -3.1988040330        1.9084323998        0.0672469666
 H         -1.2218840813       -3.1770012132        0.9052763277
 H         -1.1682289555       -3.1855068468       -0.8832723363
 H         -2.5980313829       -2.5672970263       -0.0335183167
 H          1.3180221861       -2.9613857401        0.0235812363
