25
 energy: 42.203420905158 xtb: 6.6.1 (8d0f1dd)
C            3.38121857117814        2.26135743681592        0.15220745848773
N            2.40510927552194       -0.33212351965089        0.02881019592428
C            2.52506937876809       -1.62250794861678        0.03417017717317
N            1.33201859851219       -2.30898299095560        0.01252316032808
C            0.36827729419494       -1.34498493567267       -0.02232248019308
C            1.04919878797889       -0.12131588628179       -0.01649931852377
C            0.26919330266507        1.09524683401348       -0.06670306976180
O            0.66764135427921        2.22680584531422       -0.13703316260412
N           -1.10945432999113        0.87317759930716       -0.05179753102877
C           -1.95203570117147        2.07408338347543       -0.03496279801319
C           -1.76864168419355       -0.32489260396446       -0.06509048971400
O           -2.97988988880786       -0.34556511975030       -0.08041838689971
N           -0.99195446718025       -1.49180916272207       -0.06111951541659
C           -1.76951603685415       -2.71618167912106       -0.08104703186241
H            3.84838906822813        2.42902303733261        1.06246605576474
H            3.85698687845031        2.30853307639363       -0.77153906757719
H            2.35338198421826        2.49210204263655        0.14484579089875
H            3.44822865897336       -2.16422992751219        0.03540225738526
H           -1.29172384685044        2.92919716185815       -0.02380006723872
H           -2.57915672735507        2.12346029852576       -0.92209898527906
H           -2.55522800834275        2.09981677945525        0.86654049464031
H           -1.62099748847249       -3.32733205914692        0.81009243210668
H           -1.59233576611335       -3.31379835227301       -0.97568968638275
H           -2.82045123303902       -2.37902583733060       -0.09714896101308
H            1.21072242523531       -3.31075098500572        0.02626021338679
