25
 energy: 41.849435279899 xtb: 6.6.1 (8d0f1dd)
C            3.42155020636605        2.35135521700170        0.15617461729675
N            2.39374613438853       -0.37549478684527        0.02457162351870
C            2.50251972729357       -1.66607911596190        0.03017663040000
N            1.30733679395303       -2.34445847580792        0.01184985050158
C            0.35095165200321       -1.37168596592133       -0.02370410845211
C            1.04345927491829       -0.15470922356222       -0.02030029457685
C            0.27128494786985        1.06599122445872       -0.07114999428617
O            0.68274533922009        2.19210664633885       -0.14227122326305
N           -1.10347953919146        0.85953644301421       -0.05256357990870
C           -1.92972330746486        2.07278789433766       -0.03336018020648
C           -1.77702358615131       -0.33230224332024       -0.06466824367334
O           -2.98810815439829       -0.34149355279964       -0.08160650878797
N           -1.01063611730255       -1.50796919982886       -0.06184241559503
C           -1.80047589872431       -2.72527720173698       -0.08268373368891
H            3.88418907088119        2.54098933482234        1.06325827209790
H            3.87075487424618        2.43326753089123       -0.77579020689794
H            2.38639564778663        2.53145881201665        0.14638007713687
H            3.41964960993804       -2.21188457592643        0.03418145727630
H           -1.25821636613105        2.91881118918770       -0.02336758218976
H           -2.55829647344230        2.13185080652760       -0.91892437416990
H           -2.52676551401668        2.10533104378284        0.87156606723008
H           -1.66245898958543       -3.34067289072327        0.80756196490904
H           -1.63260404059881       -3.32753817662415       -0.97648281665296
H           -2.85068409615994       -2.37985061906390       -0.09904929792408
H            1.18116704675752       -3.34539853957424        0.02718494431570
