25
 energy: 42.492011216641 xtb: 6.6.1 (8d0f1dd)
C            3.28285423554635        1.98876160040568        0.12911576439091
N            2.42238921028141       -0.20606328690744        0.04042606863333
C            2.58771210629629       -1.49887970388888        0.06823536130261
N            1.40377605515542       -2.20658338405962        0.02641138625863
C            0.41176391284612       -1.26846742909459       -0.01470339064683
C            1.05174034921387       -0.02454861551361       -0.00260897202471
C            0.24179983830922        1.17605544583486       -0.04874688369014
O            0.59278004773509        2.32715062189148       -0.12330751342455
N           -1.14411822864945        0.91538173962341       -0.04554595114958
C           -2.02451444540141        2.08418257624284       -0.03903044613125
C           -1.76502228699776       -0.29642231902116       -0.06275826688935
O           -2.97377440071079       -0.37709920049404       -0.08249265434052
N           -0.94939831287627       -1.43864016057320       -0.05574518154607
C           -1.68295960131102       -2.68615662363003       -0.07520540261332
H            3.73250082404775        2.09768966927169        1.06509931599522
H            3.88440436024534        1.95528424867467       -0.73297310464709
H            2.29097707502405        2.35222609064894        0.05010775657500
H            3.52716047172561       -2.03531575344781        0.05894084488782
H           -1.39788737601687        2.96771684933752       -0.02322278310317
H           -2.64568945118890        2.10498012891373       -0.93145900041423
H           -2.64292089031327        2.08195777345010        0.85323459153367
H           -1.50152144922206       -3.28525540142918        0.81745383052066
H           -1.47337001511162       -3.27022515665310       -0.97135775274051
H           -2.74053833170812       -2.39484663551633       -0.08945796280503
H            1.29734802171739       -3.21060674271662        0.03164973642918
