25
 energy: 35.058742252101 xtb: 6.6.1 (8d0f1dd)
C            3.63201418558174        2.84404001933059        0.18327368894382
N            2.35127998125041       -0.58929113758817       -0.00399947063818
C            2.41369017439378       -1.88332276027202        0.00719368321342
N            1.18032592448101       -2.49838582886692        0.00945565572938
C            0.27220905690422       -1.47705297038187       -0.02316759945593
C            1.01906586353755       -0.29403032616803       -0.02864556976112
C            0.32419019000055        0.97375538333050       -0.05888151555576
O            0.80844265078036        2.08068152054501       -0.10036589812084
N           -1.06181611762445        0.82887344500633       -0.04262745922786
C           -1.83635872166750        2.06836185793046       -0.02433472015721
C           -1.80590713511848       -0.33330453752642       -0.06120201306659
O           -3.01798847766348       -0.30475332936265       -0.08114773871396
N           -1.09574499681555       -1.54036106573177       -0.05874584681321
C           -1.89911645983480       -2.75355817160373       -0.08357070134214
H            4.08177717684058        3.00345993595509        1.12663253937603
H            4.07546174356966        2.92155050094621       -0.77988377867680
H            2.59095439971058        2.76480110792386        0.15569705135287
H            3.32425866140759       -2.43892326615925        0.03972612242617
H           -1.12095151159134        2.89211924631829       -0.01601708198912
H           -2.46193057937707        2.13929926561919       -0.91069296678574
H           -2.44463499316939        2.08833481976060        0.87450371198177
H           -1.74692604986175       -3.36595581420106        0.80606139409896
H           -1.71931461030267       -3.34945457237391       -0.97918965991689
H           -2.95803979036478       -2.46043237091188       -0.09470404395027
H            1.01886969763530       -3.49696176510668        0.01862503576625
