25
 energy: -42.153400920502 gnorm: 0.009463754774 xtb: 6.6.1 (8d0f1dd)
C            3.80666198507428        0.64787090772529        0.09827806532435
N            3.50191656568358       -0.49428105540484       -0.39601591046715
C            2.76123681990578       -1.53237242405135       -0.28239787753513
N            1.41659988089781       -1.60852766811514       -0.03411439242445
C            0.44555087525697       -0.64403393969077        0.02924073865534
C            0.65793150753290        0.73042297060629       -0.01257219469548
C           -0.41029931996387        1.60855849351175       -0.03477019806093
O           -0.16670726424140        2.91489354610165       -0.04587669201901
N           -1.70430781372423        1.13854267725627       -0.07504482481040
C           -2.78757240629490        1.92961448285425       -0.23811350395851
C           -1.95791056202966       -0.25542110701172        0.07819421103642
O           -3.08996090111960       -0.66313342221773        0.14526525249852
N           -0.85959264469337       -1.09169520372556        0.13719567098581
C           -1.16577245239041       -2.50676819966630        0.28249944064700
H            3.68700379612237        0.88552274826809        1.15363515176731
H            4.33574361537338        1.34706578628233       -0.53576337542017
H            1.63972672899748        1.16311235920265       -0.02385536359550
H            3.20642977377681       -2.48626747092936       -0.53702872095197
H           -0.95789770588684        3.45208868523915        0.11411839597282
H           -2.69184018299648        2.96411397994037       -0.49939676641973
H           -3.74815111782521        1.45444197597087       -0.20844356476753
H           -0.63981235508902       -2.93188363573207        1.13901662368816
H           -0.93711997014655       -3.05751037741656       -0.63239733974123
H           -2.23818113552168       -2.59070498399046        0.46341414117948
H            1.05675579740242       -2.55541058340763       -0.05389534898900
