  25
        -42.24527784
 C          3.2179743925        1.1363306056        0.0176229910
 N          2.2705025863        0.0523818805        0.0001468664
 C          2.5418213663       -1.2394741745       -0.0079679651
 N          1.3938403517       -1.9506761437       -0.0074116817
 C          0.3529018927       -1.0672251637        0.0011941655
 C          0.9076660153        0.2010561385        0.0065005691
 C          0.0756505488        1.3986393253       -0.0030202846
 O          0.4863048223        2.5319319019       -0.0173666705
 N         -1.2725810576        1.0664147011        0.0016834336
 C         -2.2328333028        2.1661010780       -0.0013986461
 C         -1.8489060785       -0.1920052467        0.0044859589
 O         -3.0328315004       -0.3619181098        0.0082712601
 N         -0.9658305658       -1.3004501327        0.0014037770
 C         -1.5192016035       -2.6409734652       -0.0026790220
 H          3.7160769090        1.1858619028        0.9867097291
 H          3.9700474858        0.9948034924       -0.7571226654
 H          2.6830381895        2.0709379826       -0.1503792834
 H          3.5249642804       -1.6693453116       -0.0148734688
 H         -1.6775951539        3.1001474454        0.0060758210
 H         -2.8585181442        2.1051393894       -0.8905201885
 H         -2.8713991165        2.0974259119        0.8778850400
 H         -1.2207075648       -3.1819307585        0.8964501538
 H         -1.1981700432       -3.1831767344       -0.8948212718
 H         -2.6041144708       -2.5438526717       -0.0182370270
 H          1.3275982607       -2.9591222600       -0.0143555410
