72
 energy: -99.656486371728 xtb: 6.6.1 (8d0f1dd)
N           -1.52771996462720        3.09048367471930        2.09889965660884
C           -1.65519283676878        2.40316014986641        1.05296315293506
C           -2.92466713264933        2.24762318810939        0.27120369755553
C           -3.41093043680938        0.80287730592285        0.31951985638836
C           -4.36335365830650        0.38330257827540       -0.61036057046513
C           -4.83136633708636       -0.91414345382592       -0.61372044398051
O           -5.76229798433935       -1.41586019753649       -1.47894665281806
C           -6.35760107946244       -0.54855405500775       -2.40787102951411
C           -4.34293118194941       -1.83100867396157        0.34329055250260
O           -4.86568409667456       -3.08790266886230        0.26477513886093
C           -4.50248808390590       -4.01709916181622        1.25253939275971
C           -3.40207897349136       -1.40984881976441        1.26251708304582
C           -2.93947110171860       -0.10009339957108        1.24862873262470
C           -2.61514053566012        2.51708904570688       -1.17447391183953
C           -1.20646130243905        0.69912676611720       -2.02664509259470
C            0.04499096462221        0.76230528314032       -1.47964627997473
N            0.65786671012086       -0.19320828303565       -0.69429483164207
C            2.03943347465905       -0.06324839777061       -0.29673743866319
C            3.00640003461438       -0.74104230679299       -1.28371641036601
C            4.42752114200820       -0.58367692279731       -0.83611702526915
C            5.11884080428996        0.58909893548002       -1.07358618206703
C            6.42248109268781        0.74768683140432       -0.62468215885465
C            7.05481886181653       -0.26350311860100        0.07501920371120
O            8.32704347799164       -0.21594000551817        0.55747638257533
C            9.08486916583526        0.94728177894877        0.34337169594973
C            6.35843204926574       -1.46611561349260        0.32304911464211
O            7.06360516861887       -2.41197281027936        1.00303226898127
C            6.46532832374962       -3.65623250100127        1.25281857372640
C            5.05869476182718       -1.60557833867419       -0.12855290771168
C            0.00542958537214       -1.44551501280930       -0.41701006770256
C           -4.07418536794927        3.14463236781069        0.81242480598554
C           -4.48695432744946        2.72547738036473        2.21994021365629
C           -3.71322445806027        4.62667915179171        0.81783267786200
H           -4.72979543936648        1.08402817487864       -1.34304082355287
H           -6.87070606922400        0.28399742761684       -1.91386961422948
H           -7.08938645694504       -1.15494053517699       -2.94106704408722
H           -5.62740140884008       -0.15252101621627       -3.12157031377769
H           -4.73859542188760       -3.65842630672088        2.26078671545395
H           -5.08742524945312       -4.91011309074033        1.04068563216004
H           -3.43705225377788       -4.26639916085142        1.20280256480248
H           -3.01439765187310       -2.08684688237917        2.00725758487157
H           -2.20925511364997        0.20715101439583        1.98077481460586
H           -3.44369769040910        2.85737871710289       -1.75671729077214
H           -1.74532910006278        3.06058524227519       -1.43531139866601
H           -1.79051882209820       -0.18733337771913       -1.89928813474616
H           -1.33938585370888        1.21135484446653       -2.96152998704193
H           -0.83752258558085        1.84556409645922        0.58679435663609
H            0.70250052048289        1.63089034968072       -1.62947542856381
H            2.19985744724595       -0.49025004110571        0.69915953060415
H            2.30524072804649        0.99193439047386       -0.22145979493768
H            2.86108555575748       -0.28289083638306       -2.26038052841160
H            2.74431572850361       -1.79736067170029       -1.36086261069058
H            4.64504500963315        1.39044582548572       -1.62073581667709
H            6.93681173798244        1.67087067417897       -0.83430235988825
H            8.62703463585791        1.82403768500150        0.81480024264522
H            9.22863289641900        1.14578239427514       -0.72432713924086
H           10.05245647199499        0.75123293582640        0.80211743566954
H            7.21846182043487       -4.24280544578634        1.77782536314615
H            5.57931900850685       -3.56110717408964        1.88904019895920
H            6.19434711552748       -4.16874833348490        0.32393065434740
H            4.51881923988528       -2.52192141389734        0.05883068712986
H           -0.06186228823769       -2.06449933208411       -1.31840656483440
H           -1.00035321714517       -1.27213292368842       -0.03207061864419
H            0.56328210480103       -1.99703306951577        0.34568672991907
H           -4.92542123901042        2.99501628436005        0.13813086551634
H           -3.65995358305677        2.87665296368995        2.90807950226971
H           -4.78744672374082        1.68139663152690        2.24540889273561
H           -5.32807956681962        3.33531686026886        2.54277779990906
H           -2.89188913593685        4.80304464977217        1.50475888528603
H           -3.43497308940207        4.97222599683483       -0.17230836247956
H           -4.57156991045891        5.20604820377245        1.15263178707036
H           -0.57895550015246        3.09343788803765        2.47280728131479
