25
 energy: -42.118428281081 gnorm: 0.003008964205 xtb: 6.6.1 (8d0f1dd)
C            3.08481936955404        0.96519397261215        0.12621759458423
N            2.08510897880247       -0.05448076389776        0.33209361580308
C            2.35885587248988       -1.23565904693388        0.86996659428116
N            1.24003385905915       -1.96512136474338        0.91426931414210
C            0.20989638539079       -1.21952042881291        0.38936535272496
C            0.74282517943819        0.00874175794742        0.02522039602934
C            0.11069421587583        1.27557420970957       -0.50211299902510
O            0.82442969656850        2.17907687181717       -0.94143423542649
N           -1.20016517211087        1.28174764862094       -0.39889278827777
C           -1.95769331940514        2.42972004994732       -0.74301904666979
C           -1.47423214894594       -2.59231541053331        1.24704629353646
O           -1.31926245508003       -3.27579015621364        2.18497485538333
N           -1.08198670552209       -1.78284420945045        0.32659706951338
C           -1.95342204613836       -1.46194310330372       -0.80359669248015
H            3.61195813250738        1.16139874279967        1.05861466430621
H            3.80020855994234        0.63418301210397       -0.62683904764311
H            2.59873001503658        1.87453170319507       -0.23163695585504
H            3.32356935627452       -1.55409079184926        1.21450629870572
H           -1.33413804972504        3.23094767343799       -1.15258270063204
H           -2.72444729333109        2.15302294365278       -1.47075097669718
H           -2.46791841192993        2.79517718214545        0.15313189201762
H           -1.55642342043895       -1.91183213484596       -1.71399239144967
H           -1.97541610069661       -0.36971640684651       -0.90429783458928
H           -2.95085649075206       -1.84568533042191       -0.60901238171664
H            1.16526350723163       -2.90207807853627        1.28733572733480
