72
 energy: -99.375226711611 gnorm: 0.004663094759 xtb: 6.6.1 (8d0f1dd)
N           -1.92184336642394        3.12115716191655        1.39435001523649
C           -1.79993635428606        2.07533759505056        0.72514318924336
C           -2.88286767641354        1.45530946745039       -0.11849877525718
C           -3.36855015911536        0.22389351973022        0.61562896176591
C           -4.45397992066348       -0.69384058798419        0.29090539619780
C           -5.28664662634285       -0.73161282857198       -0.81494422060292
O           -6.46020906861627       -1.34909429997801       -0.93053901329688
C           -7.24128542705610       -1.77461937094369        0.17060595559572
C           -4.51044734086568       -1.64704647822105        1.37406698376701
O           -4.93623666056747       -0.11127931855378       -1.94221831032028
C           -5.86175444812640       -0.07660017943856       -3.02255942881663
C           -3.53538649213879       -1.33847786902304        2.27994803582222
C           -2.85649004067512       -0.17933112741493        1.82874453723776
C           -2.20002764340957        1.05834539645648       -1.45382322831302
C           -1.25840981005365       -0.14920491856922       -1.32482372140461
C            0.03236247981228        0.17504781910589       -0.67682823965221
N            0.69229179689905       -0.61085692537086        0.16582274994073
C            2.06920052820641       -0.30919600502475        0.48593655122270
C            3.03419575809558       -0.92028795339731       -0.54860907419894
C            4.44524386105664       -0.47097786855059       -0.28959268066659
C            4.82285476560738        0.83472348989739       -0.56249717769420
C            6.11539986369544        1.26816299990724       -0.31437670639365
C            7.06322123297309        0.39899219136647        0.20619730386253
O            8.34463153048989        0.70797884030910        0.48183858656636
C            8.80655649499055        2.01369361268767        0.22369491675341
C            6.68914556601001       -0.94509731355418        0.47949720521620
O            7.67479861687270       -1.72605861288539        0.96482960441076
C            7.41594997216135       -3.08678162299124        1.21619669476690
C            5.38596807742179       -1.35168552580849        0.23631553007745
C            0.12304008612870       -1.83620693173166        0.67109166899331
C           -4.06266706794420        2.43542293723325       -0.37830493736958
C           -4.83171318669312        2.73709689436376        0.90603149880754
C           -3.62218559663741        3.74150686299649       -1.03482575513375
H           -5.15072853784333       -2.50185584784658        1.41386060025343
H           -7.03991309863742       -2.82192207065752        0.40214259753829
H           -8.27827811616783       -1.68112371006833       -0.15398215155314
H           -7.06517205280166       -1.15332893394101        1.04953659963563
H           -6.80188829821429        0.38588294364526       -2.71685050049814
H           -5.38438709763201        0.52323521359868       -3.79431206891721
H           -6.06167751196920       -1.08143469851966       -3.39728319350126
H           -3.31619534377438       -1.87562437256590        3.18298257485196
H           -2.08088427236371        0.31759434685255        2.38304345643955
H           -2.97479684444754        0.80668361891973       -2.17216146327352
H           -1.64051061800676        1.91285014663333       -1.83685877817156
H           -1.77802936163955       -0.95728637203590       -0.81239435223052
H           -1.03266880276909       -0.49298991009945       -2.34304650144952
H           -0.85558055818720        1.49586520641782        0.65519696136847
H            0.57282613018146        1.03286592478861       -1.05147591117612
H            2.30298015418820       -0.69469874173582        1.47978709123253
H            2.20669602118240        0.77468120957632        0.50090186472450
H            2.72288052670823       -0.59466088133769       -1.54421608000464
H            2.97049458578922       -2.00809753298423       -0.50856693161865
H            4.11119009889318        1.52755618168406       -0.98586191878608
H            6.37806509458255        2.28902563528790       -0.53820419718530
H            8.26564370877302        2.75532721617440        0.81954136667420
H            8.72313411136406        2.26575277685770       -0.83780086049064
H            9.85560128234939        2.01466680327883        0.51315266766900
H            8.36172326550680       -3.50590853596421        1.55413580885096
H            6.66349054575131       -3.21443238666937        2.00090482919234
H            7.09266292650270       -3.60775463860848        0.30960402061916
H            5.09278656382288       -2.36904009930041        0.44234627965752
H            0.03309611449008       -2.58619072211719       -0.11810306083489
H           -0.86862753359549       -1.64845707663128        1.09010872595969
H            0.76099123970649       -2.23378030178456        1.45633533703950
H           -4.73867510420689        1.93037106834555       -1.07105036219012
H           -4.19487866414378        3.27116313511318        1.60377632917577
H           -5.17714662731942        1.82212433910618        1.38115258810935
H           -5.69602818480363        3.35652614733199        0.67921524707785
H           -2.93139792392805        4.27778851026159       -0.39147202809004
H           -3.15376510287586        3.57007066680984       -2.00053064342363
H           -4.49303257283954        4.37218964656453       -1.19463309829607
H           -1.11770828898243        3.45209256770796        1.91793988185599
