72
 energy: -99.365442358771 gnorm: 0.004394554960 xtb: 6.6.1 (8d0f1dd)
N           -1.14606885569401        2.74944172667333        2.26253038345401
C           -1.17602702445770        1.99170697515400        1.27045402160300
C           -2.32293851527659        1.89011716092153        0.30318344875590
C           -2.95128054236711        0.50985699407399        0.41065260987408
C           -3.86205889935671        0.07978449934806       -0.55677306302198
C           -4.47436078673190       -1.15967098992317       -0.47292027249345
O           -5.36417557291528       -1.65206396187144       -1.36052009123796
C           -5.79508355507002       -0.84098321777477       -2.42760406723486
C           -4.17105242264208       -2.01857226446280        0.61774953333867
O           -4.80619614736340       -3.20823115531655        0.61436398984448
C           -4.62659508680769       -4.08218381602748        1.70437347404198
C           -3.27351659257911       -1.58192155833910        1.57866996185733
C           -2.67299424189835       -0.33330233650923        1.47506794140417
C           -1.69931000092226        2.09981086319293       -1.10187465718088
C           -0.91431378157757        0.89181960262267       -1.64498351096893
C            0.36969104430268        0.63770018831849       -0.95297035644623
N            0.79345865184864       -0.55811914081949       -0.55173362440454
C            2.16672272498630       -0.75283863092216       -0.13507066758001
C            2.97584982089615       -1.35852700018605       -1.26360360257742
C            3.77044842222988       -0.49794995851392       -2.22230441801042
C            3.91657499205923        0.93670892828099       -2.01197393154407
C            4.52439086179802        1.43997491283709       -0.91512001248068
C            5.17898311304781        0.60854796420886        0.04679403894134
O            5.85170610690012        1.08827691732166        1.12685622283731
C            6.04498734456691        2.47561089046387        1.27056836163221
C            5.23678994703135       -0.75912238659346       -0.14152371868925
O            6.03602760574539       -1.45803692922137        0.69210126272845
C            6.06826856292701       -2.86513486687695        0.62759568070621
C            4.48724701447229       -1.40532990005893       -1.22088038620672
C           -0.05323492146066       -1.72655858778987       -0.60145773129305
C           -3.44089745189921        2.94697002060279        0.54874243345264
C           -4.13388518893994        2.72671323943620        1.89138163269303
C           -2.93900546300807        4.38533300935746        0.45893520547661
H           -4.10661170931706        0.73225037222137       -1.37858181906879
H           -6.26517857917847        0.07928753826779       -2.06810154528198
H           -6.53178464015196       -1.43446795617019       -2.96541448560292
H           -4.97030808690882       -0.59208843990895       -3.10356386662551
H           -4.93585345378396       -3.61800199812001        2.64541745646081
H           -5.26365586133828       -4.94006604720302        1.49878635880908
H           -3.58674870925817       -4.41502593964859        1.78542300734544
H           -3.04004548305386       -2.20277793275921        2.42817781720621
H           -2.00129769084990       -0.01632204193779        2.25760724037743
H           -2.49615074424235        2.32667710309939       -1.80955668991862
H           -1.03763977445870        2.96609387722869       -1.06346535531451
H           -1.55293112154758        0.01094258888333       -1.63371050042868
H           -0.67685983061309        1.12113298489318       -2.69213019396038
H           -0.33375143603746        1.33924180006518        0.96461914198940
H            1.09194166925772        1.43955052545443       -0.91807660138589
H            2.17922108750075       -1.41416119695966        0.73793519341106
H            2.59788770583163        0.20626384349272        0.15568856255109
H            3.74056365172170       -0.81072035545144       -3.25476900011857
H            2.50771845365202       -2.22932231401986       -1.70476094616079
H            3.55827918952802        1.59296996457455       -2.78908221423317
H            4.59745036720969        2.50931342356573       -0.79666920924089
H            5.09862129096602        3.00417472211476        1.42767264193223
H            6.56671031961617        2.90377327661976        0.40961636739732
H            6.66635553485407        2.58849339552778        2.15697919558900
H            6.61502386022043       -3.18385614372914        1.51339920028097
H            5.06292403948406       -3.29589731028133        0.64432812431965
H            6.60219167123997       -3.21567374496172       -0.26093228448061
H            4.93401073513622       -2.31591665682955       -1.59962513091127
H           -0.27358255920089       -2.01539248291474       -1.63142598487301
H           -0.99502593398286       -1.53650614337860       -0.08105764244566
H            0.45059155863563       -2.55541740443865       -0.11077417510684
H           -4.18517014555275        2.79651541984539       -0.24205384649788
H           -3.42606129910077        2.86333047239486        2.70253762405806
H           -4.55884713337707        1.72805442267194        1.95629800123837
H           -4.93808130842325        3.44823227821239        2.00837963357551
H           -2.18100047694369        4.56682145605418        1.21446304261178
H           -2.53093375374274        4.61358176119025       -0.52206537140730
H           -3.76866948496229        5.06361578127681        0.64009422763024
H           -0.30493748366292        2.75560943192109        2.83095277762865
