25
 energy: 34.353191626182 xtb: 6.6.1 (8d0f1dd)
C            3.60145577590929        2.25632450674703        0.29546232561890
N            2.31765635424824       -0.33883350257577       -0.04950709989172
C            2.46761843003480       -1.61438354016607       -0.03180020633989
N            1.26940512108602       -2.30288364186333        0.00945097339550
C            0.30746937243080       -1.34531954368194       -0.04838580581028
C            0.97114707197156       -0.12369355722106       -0.08533502135668
C            0.21577397130013        1.09359953975893       -0.16872209423392
O            0.65558635551784        2.21292010267534       -0.27079216669748
N           -1.16219202315309        0.88911191967899       -0.07736391863436
C           -1.97460312709280        2.08995658448687       -0.02538008143698
C           -1.82173229536659       -0.30552699011686       -0.05530061832857
O           -3.03131830574834       -0.36040787175305       -0.01394487018241
N           -1.04596571133558       -1.46603162465486       -0.08414857137500
C           -1.77088903088116       -2.71208269901273       -0.09156824348116
H            3.96917534830387        2.43974863907572        1.26554815091532
H            4.22990068238611        2.23232328718743       -0.53620522901339
H            2.58534645679817        2.45917736889810        0.08723497496568
H            3.41843627507761       -2.10092910304614       -0.06779428496390
H           -1.31025643871542        2.90574328632007       -0.28685579716056
H           -2.81013137409787        1.99597234391007       -0.70321539104180
H           -2.31784515685969        2.23769864463585        0.99414349168414
H           -1.54190285988870       -3.31775925423527        0.79075397654147
H           -1.57264332774639       -3.28500939188721       -0.99552292841420
H           -2.82444379781587       -2.42096604305100       -0.05858063799798
H            1.16608815586355       -3.30609503333373        0.05531720828362
