25
 energy: 26.052228291822 xtb: 6.6.1 (8d0f1dd)
C            3.20639301896795        1.52620828813141        0.15335105532152
N            2.43397182532216        0.02541351329215       -0.00765366399533
C            2.64888695976831       -1.39048268108746        0.14876540924501
N            1.43518943708386       -2.08402562387285        0.03339063203620
C            0.43144792085376       -1.19162196815257       -0.02789220749335
C            1.01980064544875        0.08057695269643       -0.02100695857207
C            0.21041125898335        1.22632267730454       -0.06236959726934
O            0.58470703973912        2.39788394474240       -0.16668970708609
N           -1.18719262373399        0.95454581901745       -0.03733715636986
C           -2.06010006947849        2.11327992649867       -0.02264417487272
C           -1.77945775587630       -0.26291174918366       -0.04569071962250
O           -2.98650874912984       -0.39480114782469       -0.04843811750405
N           -0.93130736404028       -1.39005126131077       -0.05376799107318
C           -1.60361905755611       -2.67159034206626       -0.06407221406218
H            3.63754524568246        1.81888579788319        1.10056756088350
H            3.96502882255394        1.63918920371649       -0.62423991201455
H            2.36468833445802        2.19761484458253       -0.03314394697107
H            3.55859297347716       -1.94236057961989        0.01512546591394
H           -1.40224837556452        2.97671970346755       -0.08465860003865
H           -2.76138198023443        2.04949250477588       -0.82924090029378
H           -2.57460986850586        2.15351181869787        0.92273519019020
H           -1.36134278834893       -3.25533870217353        0.82606495719513
H           -1.35494549251258       -3.23890317260389       -0.96259207376589
H           -2.67482400531471       -2.45566032656388       -0.06691670951411
H            1.33652218511449       -3.09369099296023        0.01705584050346
