25
 energy: 29.837209225483 xtb: 6.6.1 (8d0f1dd)
C            3.88455809174862        2.97366431923130        0.19850477013127
N            2.26185614100137       -0.61460887596794       -0.02499165639082
C            2.33105401979657       -1.90308729483194       -0.02846163728979
N            1.08937193556350       -2.50217511558553       -0.04184827180655
C            0.19167376436537       -1.48294448713292       -0.04770689131725
C            0.92940520455389       -0.30888555170895       -0.03753958917725
C            0.27709047304669        0.97611291562133       -0.03704227699013
O            0.79405887219338        2.06751371234461       -0.03137364764708
N           -1.12512212361848        0.84051216661111       -0.04382066741786
C           -1.91583425272431        2.06433323248249       -0.03896200598469
C           -1.86470988887711       -0.32031788472420       -0.05200550646329
O           -3.07514093759908       -0.31074228998513       -0.05350066960249
N           -1.16386154908175       -1.52620184940127       -0.05902394384732
C           -1.89533705749206       -2.77440134450511       -0.07092964847859
H            4.23216827679611        3.22688044055698        1.17696334748957
H            4.56627416845043        2.99563710221981       -0.62460284864657
H            2.86557653328889        2.69131436038080        0.04746269927072
H            3.24131837938442       -2.46633813000243       -0.02129382376498
H           -1.23040480967860        2.90726496555329       -0.09265895437056
H           -2.59280411156252        2.06780698183661       -0.89243929265360
H           -2.50953932197643        2.11919965296114        0.87325994045207
H           -1.65755441940681       -3.36695969989039        0.81450697605193
H           -1.66455528630999       -3.34657074799248       -0.97164182256087
H           -2.95624859559458       -2.52736275683319       -0.06411035854976
H            0.89892079870477       -3.49061503249388       -0.04971030824150
