72
 energy: 36.285568051086 xtb: 6.6.1 (8d0f1dd)
N           -1.96686253040041        3.13414504358556        2.41694719865068
C           -1.79922586617725        2.32675675236790        1.47264174776770
C           -2.80499905050802        2.11771835559545        0.37292096118043
C           -3.36245140504888        0.70367113453682        0.45404810390601
C           -4.22382020798714        0.23593469360158       -0.54026111680015
C           -4.76702562910718       -1.03400598193567       -0.49066049339103
O           -5.63685713542878       -1.55281003149536       -1.40304340856198
C           -6.14599351518155       -0.71202580345984       -2.40637983568377
C           -4.42433585023454       -1.90033837025511        0.57079962620546
O           -4.99217526403520       -3.13799658960374        0.52521889129680
C           -4.73406346645899       -4.03484499073896        1.57375987188489
C           -3.56863637442865       -1.43932277895361        1.55234758395461
C           -3.05336681913581       -0.14884096310175        1.49709322052884
C           -2.03353527024021        2.29212695019216       -0.96363934124628
C           -1.07785938669977        1.13948339485049       -1.33386763254359
C            0.17167322838105        1.08920522443163       -0.50456632804289
N            0.75933234870657        0.00211633576535       -0.00766181057617
C            1.95019400693452       -0.01484935053848        0.58564760839278
C            3.51497210341235       -0.81014638642265       -2.42567337263248
C            4.63432873951497       -0.63334704054367       -1.63909238975123
C            5.30591565827068        0.61151889534003       -1.58800186898595
C            6.43932180943618        0.78622616613522       -0.83343339162699
C            6.96180712247619       -0.25853507237473       -0.07776471844912
O            8.05666117066861       -0.18487724831700        0.72931162968664
C            8.78370655331875        1.01403932936652        0.76671617056359
C            6.31932472430569       -1.52263829144545       -0.10651274290916
O            6.91451106426977       -2.48181418608870        0.66244575140522
C            6.38070172366285       -3.77653809590821        0.65889522631819
C            5.19287823414876       -1.69489201262572       -0.86807490184454
C            0.04512014796429       -1.26705503507696       -0.10923537411442
C           -3.99671854929969        3.11496491948542        0.43480088589117
C           -4.83444014590657        2.91112605332141        1.69576957231508
C           -3.56714523081908        4.57734772422746        0.33390888288864
H           -4.48226618369410        0.88396532887369       -1.36168242063367
H           -6.63250371912951        0.17310127777278       -1.98472417457915
H           -6.88477227607184       -1.30782600266500       -2.94056052303500
H           -5.36703898880355       -0.39615246908047       -3.10825711525702
H           -5.06817150720101       -3.63608739990386        2.53744285425026
H           -5.30766274929707       -4.93034007435453        1.34062390661026
H           -3.67135829150553       -4.29422139906783        1.63402748961966
H           -3.29475122154562       -2.07273132108919        2.38092783070760
H           -2.41321808093396        0.18498292896373        2.29832648677891
H           -2.76319681958084        2.39919249983658       -1.76907381135825
H           -1.46346551326513        3.22071285421035       -0.92056770158493
H           -1.62825070812763        0.20064366902215       -1.29524170372006
H           -0.79489148373913        1.29988477237373       -2.38232383058741
H           -0.89381878653471        1.72832247292922        1.36432095465061
H            0.75498206707274        1.99669724697939       -0.45149931230595
H            2.30447217331744       -0.89272700072479        1.08847543463280
H            2.49033789136362        0.90232355679612        0.72332318646638
H            3.14428469421716       -0.01713309581028       -3.05332199753274
H            3.06677126927420       -1.77794200456912       -2.55061351656340
H            4.89980152283062        1.43561560108072       -2.15224854604284
H            6.88691532176145        1.76479720420651       -0.80222280364459
H            8.19519816272490        1.82615979609902        1.20853488608467
H            9.12733657043171        1.31381558690087       -0.22985114712191
H            9.64603007135502        0.81480884671474        1.40127239593283
H            7.01096489310775       -4.35828407940741        1.32755386781860
H            5.34658981510594       -3.80381026010709        1.01114443377497
H            6.42439311239923       -4.21938067685495       -0.34424129229476
H            4.69577662756374       -2.64977609817996       -0.91169077268198
H           -0.05796028982221       -1.58704537386767       -1.14541635190700
H           -0.94678631360873       -1.17207283977684        0.33993028608651
H            0.59434178086753       -2.03757155276366        0.42522540977411
H           -4.63788219389356        2.90068085657210       -0.42973241168721
H           -4.23852611204453        3.14568600838463        2.56974102532583
H           -5.18609360122978        1.88473225584906        1.76713769154731
H           -5.70251326869711        3.56721281308782        1.67359521495336
H           -2.90367714555022        4.82773165102613        1.15086604908507
H           -3.07071688894254        4.78583364657011       -0.60985027380168
H           -4.44295243089931        5.21870900221785        0.40000193885382
H           -1.19816263998339        3.19595773728433        3.08015756601631
