72
 energy: -4.563698617373 xtb: 6.6.1 (8d0f1dd)
N           -1.57277223953093        2.84390240163810        2.27462581431363
C           -1.59243927140415        2.17701235368681        1.21090494380211
C           -2.75680556163391        2.06961048260754        0.26792714073969
C           -3.32419211926532        0.65872471278046        0.34768264911011
C           -4.29052792501855        0.24452787380472       -0.57026745326731
C           -4.83438618929659       -1.02462021643506       -0.52411084955130
O           -5.78632367345445       -1.50314240178915       -1.37375392121994
C           -6.34943920322057       -0.62850950657327       -2.31702616639844
C           -4.40314590451390       -1.93446889531555        0.46639607338103
O           -4.99348104345084       -3.16254332682901        0.43165747066756
C           -4.67679908926972       -4.08769397820640        1.43906568954379
C           -3.44879097952321       -1.52315255171554        1.37626478897888
C           -2.91740934133369       -0.23946780635431        1.31708591222871
C           -2.16249358318066        2.29863489464702       -1.14532283697207
C           -1.21771990100172        1.17478504051782       -1.60421473618112
C            0.04728330260156        1.12419932684302       -0.81586682448590
N            0.68430240035994       -0.05603168220688       -0.46409780116026
C            2.10302333093252       -0.10177568264763       -0.17950654091108
C            2.98647410126265       -0.56278826632445       -1.42949908252227
C            4.40768571418000       -0.47078089874181       -0.98384505808331
C            5.11473599703216        0.70531840945395       -1.14646504899854
C            6.40145215383641        0.83156203971648       -0.64692613840654
C            6.99292824009025       -0.21807742444809        0.03256065648761
O            8.24350837354158       -0.20600084903919        0.57320925736334
C            9.02258395701713        0.94839846322113        0.40637603152828
C            6.28016406519787       -1.42465808603504        0.20675164546688
O            6.95175350117127       -2.40202734634762        0.87906572831961
C            6.32781006222301       -3.64590047868802        1.05961131057956
C            5.00028555332748       -1.53288673618261       -0.29831345142633
C           -0.02683759977448       -1.30309555807822       -0.52741074825469
C           -3.89559441594761        3.08453079332985        0.55513605629498
C           -4.56143107618378        2.80009987501407        1.89886269398839
C           -3.42902386724789        4.53808187204795        0.50974956565451
H           -4.62657295828957        0.93426776876327       -1.32703147381162
H           -6.80822743432988        0.24296691572500       -1.83794136316121
H           -7.11984788455122       -1.20740271585645       -2.82404752807157
H           -5.61054995798457       -0.29163843855730       -3.05228342705032
H           -4.91679904565911       -3.69885531503103        2.43434195444121
H           -5.29463008437995       -4.96110657181942        1.23555311702962
H           -3.62075447723880       -4.37783458722216        1.40760254272754
H           -3.11067921263313       -2.19081924787587        2.15302100986716
H           -2.19411756642453        0.05549022607569        2.06169566802316
H           -2.97644405974747        2.38842858351568       -1.86576695474733
H           -1.61502603442333        3.24196155096271       -1.15108327240051
H           -1.76007239128211        0.23026211407952       -1.56495300536692
H           -0.96619453002661        1.36573638065534       -2.65322380294156
H           -0.71445628012060        1.65543312324326        0.77273398830110
H            0.68728485581575        1.99230990534175       -0.85462986991578
H            2.23786409046334       -0.74630158340890        0.70445286701126
H            2.39062647754688        0.90243007890210        0.17099035617640
H            2.81983351973151        0.06391956889356       -2.31128304179170
H            2.74060775877382       -1.58975163189040       -1.70203360113587
H            4.66871081713829        1.53587021107604       -1.67320322751646
H            6.92790537859940        1.76083263481540       -0.79761667166835
H            8.56722871660439        1.81729615023250        0.89292385531207
H            9.18949734388226        1.17540459811725       -0.65189870236917
H            9.97363508086714        0.72281395654344        0.88452067166720
H            7.05060958362348       -4.26126356931404        1.59291874654413
H            5.41250559156514       -3.56322616193021        1.65453435876056
H            6.09042514669647       -4.12037911822885        0.10154523588855
H            4.44670116440738       -2.45109949488665       -0.17727333086038
H           -0.19688897648622       -1.62449706267114       -1.55958392361471
H           -0.99666137618941       -1.22653044365286       -0.02561494720267
H            0.56572017127718       -2.06155679325389       -0.02078386079735
H           -4.64966574553950        2.94984049328563       -0.22982065453750
H           -3.84606044273987        2.94703274950594        2.69940143183511
H           -4.93325181670389        1.77909044862686        1.93816141296266
H           -5.39873109538166        3.47883480504342        2.04548528040080
H           -2.65776412037017        4.70865707461814        1.25230512760385
H           -3.04561663449460        4.80958860730898       -0.47052195149452
H           -4.26864047629963        5.19269204781462        0.73306325461058
H           -0.70143472896970        2.84571076106920        2.79872804868160
