72
 energy: 0.039147248363 xtb: 6.6.1 (8d0f1dd)
N           -1.63198014735640        2.89100532930264        2.30081457437623
C           -1.62330062640504        2.19897655266395        1.25353954312296
C           -2.76485103894878        2.07683153781828        0.28417604433988
C           -3.33040059126093        0.66555040392315        0.36377693788208
C           -4.28075782210992        0.24301514594880       -0.56663782322300
C           -4.82393490380077       -1.02653340455392       -0.51986075034708
O           -5.76316035770359       -1.51169813334633       -1.38003823641857
C           -6.31750778517272       -0.64114338637291       -2.33219784323204
C           -4.40600140084749       -1.92968273954710        0.48211762016911
O           -4.99322478035018       -3.15925065252807        0.44565587427486
C           -4.68521208969268       -4.07973547846761        1.45984537375533
C           -3.46631416886950       -1.51054074278249        1.40367654534941
C           -2.93781306274993       -0.22567395233493        1.34525557964596
C           -2.14117409866513        2.29816591562088       -1.11779208740982
C           -1.19175275692834        1.17063500402781       -1.56115274003565
C            0.07097269338691        1.12078808919300       -0.76384804516357
N            0.71130668623610       -0.05581633773129       -0.39252766849270
C            2.13601595501469       -0.12677680649613       -0.15859079351171
C            3.02141338356090       -0.57771973562550       -1.52876462711439
C            4.43689927415149       -0.49561691534954       -1.08019619644778
C            5.14034019156337        0.68704962164113       -1.21601616018716
C            6.40961824918857        0.82155881491341       -0.67718185480748
C            6.99085637525544       -0.22552313329525        0.01455500220272
O            8.22085495310657       -0.20229166263490        0.60153174464421
C            8.99057383077722        0.96179783833663        0.46451644615430
C            6.28743073061974       -1.44105054333030        0.15691977409490
O            6.95050553623866       -2.41488930413903        0.84417901393001
C            6.33652122409776       -3.66694981403817        0.99748536623710
C            5.02463899152354       -1.55887963269716       -0.38767388423119
C           -0.01280609749463       -1.29912997742520       -0.46127793484011
C           -3.91338499040182        3.08975667909995        0.53661244081952
C           -4.60598955226196        2.81698014197036        1.86894076099437
C           -3.45187202296085        4.54443879403028        0.48337255771423
H           -4.60484887309368        0.92655870677531       -1.33434493926021
H           -6.78014472150966        0.23248318813735       -1.86099799358929
H           -7.08313626367461       -1.22182661511008       -2.84433973200463
H           -5.57171701479430       -0.30699031196901       -3.06155537399054
H           -4.93944395297724       -3.68837815492864        2.45058284217373
H           -5.29651145908921       -4.95676146486842        1.25201573115936
H           -3.62751281809572       -4.36516033879405        1.44277576060065
H           -3.13753966579063       -2.17305981163451        2.18875232028696
H           -2.22687792271131        0.07601958511039        2.09896126756365
H           -2.94294074236155        2.39053937328848       -1.85184413450655
H           -1.59149782352387        3.24010794586056       -1.11574387015792
H           -1.73554905856634        0.22694288363015       -1.52466798987650
H           -0.93627219970780        1.35704267333301       -2.61063677053681
H           -0.73722174754787        1.66176557284814        0.86440554609760
H            0.70661927842028        1.99266266420019       -0.79686579799153
H            2.30967203857166       -0.80231143115451        0.68941459757846
H            2.45787827657170        0.85824807133843        0.21109158272842
H            2.85003327221017        0.06289068032962       -2.40480545834652
H            2.77334895846020       -1.59735263480223       -1.82768399827014
H            4.70065350695140        1.51849634376259       -1.74662135372735
H            6.92265562617083        1.76021066239907       -0.80097270644268
H            8.51045430458847        1.82085185243216        0.94456452685473
H            9.18223950971303        1.19955666707453       -0.58729332564755
H            9.93058806847956        0.74358610378388        0.96739538057735
H            7.04801920863317       -4.27776000337779        1.55085413105939
H            5.39832732726160       -3.60090162971944        1.55750409491630
H            6.13814191870211       -4.13796800828420        0.02874097182674
H            4.47830755144097       -2.48415801544680       -0.28841523283611
H           -0.17972783739913       -1.62372546782851       -1.49250452838448
H           -0.98584273450232       -1.21643303874619        0.03322322277197
H            0.57077274183645       -2.06059950325538        0.05029311554751
H           -4.65184032372302        2.94431794719842       -0.26135412695979
H           -3.90677645294913        2.97678408278531        2.68055908245005
H           -4.97366561565727        1.79455282025871        1.91157255414603
H           -5.44927133455955        3.49339615713651        1.99162318639827
H           -2.69623127333610        4.72494608586470        1.23843864367922
H           -3.04980258731284        4.80574048440327       -0.49214545084110
H           -4.29744035527916        5.19911024416071        0.68323879214462
H           -0.77589186310827        2.89906968469884        2.84852009769816
