72
 energy: 36.198630339078 xtb: 6.6.1 (8d0f1dd)
N           -2.04460262868366        3.17661053232085        2.45037558998433
C           -1.84543650684063        2.36402819358063        1.51522110926848
C           -2.81772555716203        2.12983950031466        0.38875227730644
C           -3.36784301051660        0.71316122716445        0.47395754049025
C           -4.20785061551457        0.23477255055906       -0.53523167033689
C           -4.74987291937318       -1.03512662495240       -0.48405457147751
O           -5.60221933812491       -1.56165694161486       -1.40723077714489
C           -6.10387527651105       -0.72734585176208       -2.42050242147167
C           -4.42615522796394       -1.89039831988910        0.59408360060828
O           -4.98816145734588       -3.13004063646659        0.54783063749225
C           -4.75053171024105       -4.01795486669816        1.60994912538521
C           -3.59518268044489       -1.41712722799156        1.59162659479954
C           -3.08132964434440       -0.12566941301674        1.53542859819903
C           -2.01106713277119        2.29401438240882       -0.92909037745439
C           -1.05736370126327        1.13475536676017       -1.27312631926762
C            0.16693124099004        1.10758189086925       -0.42414218064704
N            0.71859116825879        0.03338946486536        0.12471798860949
C            1.84872326297082        0.05540518570208        0.81782890287385
C            3.69078845214008       -0.90030607472028       -2.69618520200943
C            4.73555274546839       -0.69082080037497       -1.82605807859903
C            5.34861817314700        0.58366278995190       -1.69616173797150
C            6.41979582906269        0.78233121856480       -0.85922742215747
C            6.93062398771098       -0.26336853814154       -0.09472302465940
O            7.99700647038080       -0.18411490666430        0.74766022619368
C            8.71063348440592        1.02146900647450        0.83825435561430
C            6.31912423718426       -1.54553836253768       -0.17788812632351
O            6.88403802408223       -2.49084356857324        0.62980687942515
C            6.39072673244386       -3.80334435658090        0.57507239434360
C            5.26113346758088       -1.74737624563765       -1.02335810036213
C            0.04132821784725       -1.24613463439730       -0.00374267790413
C           -4.01825727119602        3.11968353518324        0.40145918691116
C           -4.89139357397774        2.92483069150234        1.64065294018273
C           -3.59531201554632        4.58377798374315        0.29647503497658
H           -4.44654894319385        0.87429847927152       -1.36923681865220
H           -6.59692776325595        0.15898001794533       -2.00729639227193
H           -6.83759898656297       -1.32908621550485       -2.95517499070736
H           -5.31915543535871       -0.41554030210482       -3.11843672732455
H           -5.10891558689898       -3.61527057353286        2.56326674277394
H           -5.31295030580524       -4.91812519546987        1.36635110562272
H           -3.68803220101770       -4.26986474027644        1.69896802797206
H           -3.34494569809466       -2.03924386062116        2.43672448850349
H           -2.46441426621338        0.21793163863425        2.35141065195785
H           -2.71889803785659        2.40154546143998       -1.75297906436614
H           -1.43153463120188        3.21678379291177       -0.87106241194729
H           -1.60690037299582        0.19642625482155       -1.21875247281019
H           -0.75781259315673        1.27823879811627       -2.32161701689950
H           -0.92459470020066        1.77505191405013        1.39971638296154
H            0.73263014572585        2.02265134656023       -0.34587367207245
H            2.23580364252927       -0.83859119471388        1.25570293713596
H            2.39447072436585        0.97318183304692        0.90465026090599
H            3.29789123627393       -0.09719607549980       -3.29268959581767
H            3.24929125509434       -1.87237590634242       -2.82202951953198
H            4.96658336362934        1.40387453018589       -2.28502107988513
H            6.86991833436891        1.76215689866829       -0.80006374644715
H            8.10150870843641        1.82361552521579        1.26941010245934
H            9.09480577813975        1.34208699680765       -0.13616456284204
H            9.54875487975622        0.81248096101933        1.50247189547698
H            7.00116725385063       -4.37255554304332        1.27525705734652
H            5.34092715900298       -3.85729817904980        0.88488004105660
H            6.49417770648421       -4.23268530670276       -0.42761916766552
H            4.79810374494897       -2.71813329668635       -1.11185648289805
H           -0.02302731345172       -1.53183897954275       -1.05378044968721
H           -0.96678426431814       -1.18943874574717        0.41154974627365
H            0.60038663735188       -2.01002839886315        0.53127245941654
H           -4.62976540161603        2.88780127281861       -0.47873477828379
H           -4.32731486859501        3.17868674865126        2.53173575251808
H           -5.23162109231617        1.89488694855382        1.72008453306543
H           -5.76384989394178        3.57192552675224        1.58134512776736
H           -2.95427869449987        4.84929769199322        1.13073225055640
H           -3.07311912130739        4.78541288145588       -0.63535390719523
H           -4.48026730226240        5.21568196238329        0.32820809165178
H           -1.29469912884920        3.26141971941595        3.13406123513850
