72
 energy: 13.307746217884 xtb: 6.6.1 (8d0f1dd)
N           -1.69020926258622        2.93569637377347        2.32607992536682
C           -1.65421514158039        2.22298952153811        1.29465505426960
C           -2.77278140710175        2.08421104552768        0.30042027741142
C           -3.33632554286344        0.67236552549211        0.38036377709030
C           -4.27049367504094        0.24166157607967       -0.56266630854806
C           -4.81356810358667       -1.02805113731698       -0.51513037692922
O           -5.74005692748912       -1.51946473938215       -1.38508809164722
C           -6.28624851059011       -0.65369757004678       -2.34657099818027
C           -4.40894301733725       -1.92457959042733        0.49839621128345
O           -4.99281496215596       -3.15509820039023        0.46018023275766
C           -4.69371162129448       -4.07145312521582        1.48088912355209
C           -3.48380801172595       -1.49778653876705        1.43131501064914
C           -2.95787091938291       -0.21175133621120        1.37360600029747
C           -2.12028848328980        2.29725948837930       -1.09009182237512
C           -1.16772513564508        1.16580475106517       -1.51867168654771
C            0.09247520808475        1.11399223537235       -0.71387232497626
N            0.72996442428098       -0.05170454036029       -0.32323177563707
C            2.12212634046697       -0.12639025918328       -0.07873300316578
C            3.08951602708112       -0.60594441589606       -1.66080970496290
C            4.46849622816974       -0.52081014804869       -1.17853713570780
C            5.16694860488075        0.67127299641996       -1.28365961991018
C            6.41578914487155        0.81376151792712       -0.70540655600192
C            6.98666324573130       -0.23205724812526       -0.00262952117305
O            8.19612156627395       -0.19826449532421        0.62905180158193
C            8.95687771940048        0.97435940267946        0.52188529258148
C            6.29338401885075       -1.45650706713889        0.10789861594980
O            6.94780324715406       -2.42819440028595        0.80942696221043
C            6.34422020233118       -3.68761589655646        0.93568598827910
C            5.05063266663048       -1.58517154889301       -0.47633346897236
C           -0.00050075712991       -1.29670417624848       -0.39699632444797
C           -3.93036234663663        3.09501571868948        0.51830839607108
C           -4.64936325837984        2.83353639520919        1.83888217457944
C           -3.47433764994390        4.55099227759367        0.45720080675690
H           -4.58285782177396        0.91899739173459       -1.34087709531458
H           -6.75299163723138        0.22200145292252       -1.88364612590698
H           -7.04703899646720       -1.23669367624290       -2.86322855455435
H           -5.53398145019185       -0.32259169673196       -3.07048339391245
H           -4.96206427308395       -3.67793760501376        2.46701175680725
H           -5.29861894118456       -4.95178053056722        1.26849743891600
H           -3.63463432534357       -4.35223105265575        1.47783760975901
H           -3.16453632959832       -2.15509262066553        2.22460432061450
H           -2.25919381238177        0.09616059889327        2.13626431380811
H           -2.90956011668172        2.39137877939078       -1.83754110854660
H           -1.56808408483723        3.23755476605169       -1.08076542374933
H           -1.71262302595065        0.22302046783021       -1.48412974564878
H           -0.90692103731074        1.34829792242170       -2.56811205428608
H           -0.76170809138347        1.67083898428067        0.95598841331780
H            0.72250478003283        1.99124598022450       -0.73474700085896
H            2.35993952636335       -0.85864496235998        0.69521913394728
H            2.50100320720401        0.83197266293358        0.28450075079887
H            2.89971299341400        0.05970315225148       -2.51066828937397
H            2.81486271779264       -1.61363103163912       -1.95589058108095
H            4.73300967172365        1.50132299593181       -1.82134984865367
H            6.91570085867531        1.76089660770132       -0.80492140620993
H            8.45377203068132        1.82445142635165        0.99469300437475
H            9.17494199541606        1.22294432500772       -0.52255672938515
H            9.88493857872106        0.76292218509683        1.04982359947361
H            7.04345715204562       -4.29271443344815        1.51063395707589
H            5.38429980370442       -3.63749322572112        1.45947209346326
H            6.18585607998539       -4.15675914847433       -0.04202645257695
H            4.51208482620318       -2.51799007975185       -0.40515472792071
H           -0.16015929613298       -1.62321266374536       -1.42750123151433
H           -0.97637012725010       -1.20748624504771        0.08908950111551
H            0.57583272247455       -2.05998161018056        0.11896394619083
H           -4.65256960273014        2.93818803764706       -0.29252875443704
H           -3.96753486379141        3.00645976997116        2.66215813739334
H           -5.01282821475474        1.80974314334377        1.88509001337215
H           -5.49856484231139        3.50688350054839        1.93706082114922
H           -2.73479772038692        4.74281615420757        1.22454388347244
H           -3.05437288804438        4.80273641620574       -0.51326672325492
H           -4.32602180964444        5.20467765655609        0.63343067238523
H           -0.84879849823447        2.95383696484629        2.89549065889620
