72
 energy: 36.224236213871 xtb: 6.6.1 (8d0f1dd)
N           -2.06035943399351        3.20073064565969        2.44383398252417
C           -1.85612130461248        2.36756918519145        1.52807373968805
C           -2.81711746852610        2.13066026449778        0.39371001759335
C           -3.36749709723791        0.71429705571929        0.47904864124082
C           -4.20305668133840        0.23447538999527       -0.53315265798361
C           -4.74575532010144       -1.03480683935608       -0.48265345852744
O           -5.59606076592154       -1.56202621402552       -1.40757678129603
C           -6.09588935223502       -0.72778751267818       -2.42162066152729
C           -4.42641242573898       -1.88874157765838        0.59751978767402
O           -4.98880836393951       -3.12858786409877        0.55048323885146
C           -4.75199214471484       -4.01616139764653        1.61321138193225
C           -3.59974543407867       -1.41423408148375        1.59780363083545
C           -3.08562822156558       -0.12289313208345        1.54297680793046
C           -2.00261826755147        2.29487762745291       -0.91954569107498
C           -1.05112848942360        1.13359973663870       -1.26055655372722
C            0.17548712259800        1.10417747235415       -0.41090362454121
N            0.73058590757879        0.02732888802224        0.13137205193708
C            1.87757950632506        0.03717549528377        0.80018628336719
C            3.67300781959050       -0.88633239433718       -2.68578189624148
C            4.72647882500818       -0.68723234114029       -1.82455089550205
C            5.35530914182374        0.58088264799180       -1.71227986294108
C            6.42356193268101        0.77972824461303       -0.86988126198907
C            6.93036072813927       -0.26400165348452       -0.09890865605419
O            7.98673619252454       -0.18076209846935        0.75742430491996
C            8.69538798178529        1.02830597285360        0.86131270578352
C            6.32218926794232       -1.54738909171890       -0.18761760493154
O            6.88149138714517       -2.49251016966686        0.62501498080338
C            6.39428597624785       -3.80640996736037        0.55831577612157
C            5.26472975924531       -1.74741320968230       -1.03496346673707
C            0.04567506121524       -1.25048062644042        0.00861310201738
C           -4.01953529895271        3.11823494130711        0.39704808791285
C           -4.90441338513370        2.92464176367957        1.62904585939080
C           -3.60122307717550        4.58380035046745        0.29052389742178
H           -4.43695227094389        0.87215163625179       -1.36995008965152
H           -6.58960507177184        0.15862791766445       -2.01017775252664
H           -6.82864507340233       -1.33008261908844       -2.95696175943131
H           -5.31037495459077       -0.41535641984874       -3.11833399595017
H           -5.11409763477974       -3.61461035403605        2.56601677941161
H           -5.31366634297310       -4.91630041092416        1.36908823693498
H           -3.68916756409562       -4.26669379567233        1.70258629619383
H           -3.35602269716697       -2.03433697741129        2.44585403611155
H           -2.47370818898600        0.22109359436785        2.36239742555505
H           -2.70609874848485        2.40331387861444       -1.74738945476115
H           -1.42242577923757        3.21733084104071       -0.85779745637205
H           -1.60376079232666        0.19669071532837       -1.20741062976621
H           -0.75197841059367        1.27666964235095       -2.30913452382976
H           -0.93879809597388        1.77223506798396        1.43565381613030
H            0.74145055869451        2.01985064986122       -0.34069816642743
H            2.25330203247387       -0.86048570041493        1.24044672251887
H            2.42300858505270        0.95414906795237        0.89233226168109
H            3.27140714600469       -0.07447722310456       -3.26290348555051
H            3.22026413186956       -1.85336434736643       -2.80101613883618
H            4.96704961052239        1.39996927996771       -2.29914256082385
H            6.86855492731416        1.76148949141347       -0.79971715705983
H            8.07433128263494        1.82662119304182        1.28635834591933
H            9.09272904633445        1.34953825694798       -0.10860705198097
H            9.52674583883169        0.82203576429827        1.53677651533401
H            6.99355574126781       -4.37547254208209        1.26773070380669
H            5.34046405243073       -3.86564479657677        0.84913559702160
H            6.51580470816220       -4.23252894923061       -0.44325364065519
H            4.80014006932565       -2.71552885862061       -1.12657925203896
H           -0.02783615284714       -1.54780400485565       -1.03752045428746
H           -0.96174886188776       -1.18218596544975        0.42452638207422
H            0.60490146694706       -2.00827268680625        0.55165131576559
H           -4.62236340862373        2.88153621272807       -0.48856399130959
H           -4.35259892568481        3.18393831771354        2.52710335081010
H           -5.24216537008117        1.89422230013233        1.70937839330778
H           -5.77989105228540        3.56742019251994        1.55520845740576
H           -2.96670289458034        4.85553435446052        1.12759278420170
H           -3.07213900648166        4.78276612411988       -0.63884763574910
H           -4.49060800734977        5.21089642896525        0.31288876450167
H           -1.32436820868132        3.28216903031106        3.14216619264183
