72
 energy: 36.261107323547 xtb: 6.6.1 (8d0f1dd)
N           -2.05416762699631        3.19116342572805        2.43736040189204
C           -1.84395136547481        2.36000996797755        1.52132091298192
C           -2.81462505921680        2.12873753568609        0.39375898417885
C           -3.36993150958639        0.71437881348567        0.47827851185920
C           -4.20656777815747        0.23475803333777       -0.53279961397246
C           -4.75005645734638       -1.03469697892197       -0.48178854831172
O           -5.60023940389836       -1.56246826306662       -1.40700700501087
C           -6.09569736978992       -0.73124432234804       -2.42502161304371
C           -4.42808974330810       -1.89093144997939        0.59484529958730
O           -4.98999951873058       -3.13084547875580        0.54660104822614
C           -4.74718643451252       -4.02103506627203        1.60472928549189
C           -3.59689731568287       -1.41832454762540        1.59188606250817
C           -3.08447585708340       -0.12637446954960        1.53763848947215
C           -2.00958709186626        2.29299131828757       -0.92414632454991
C           -1.05785000523165        1.13383453170976       -1.27503564503051
C            0.17750849908685        1.09489759437766       -0.43470967160884
N            0.74427072969359        0.01838357628393        0.09441679723234
C            1.90556171954484        0.02612170509738        0.74586799369439
C            3.63234520663070       -0.87293538348086       -2.61906953125984
C            4.70586540749711       -0.67170401880651       -1.78042154400303
C            5.34821713919826        0.59034094954341       -1.68640803941032
C            6.43124848120393        0.77970628325357       -0.86672806691536
C            6.94085740080849       -0.26434002800725       -0.09880970209865
O            8.00116022151746       -0.18204444950120        0.75262704766639
C            8.71553482429064        1.02225537257257        0.83971154843597
C            6.32765046483641       -1.54275303279839       -0.17253511473639
O            6.89198832859986       -2.49334562696514        0.62866932933554
C            6.39416594636584       -3.80251650571199        0.56970918941833
C            5.25003507320312       -1.73297142224768       -0.99544135094471
C            0.04822811263824       -1.25550501150076       -0.01703106291047
C           -4.01580884966709        3.11967156424733        0.40668883313277
C           -4.89253586818488        2.93085493250309        1.64381127569577
C           -3.59659190739987        4.58445007844963        0.29440341126196
H           -4.44682091127106        0.87325581320842       -1.36739070054525
H           -6.58959228579612        0.15621652149031       -2.01728700816331
H           -6.82614832795359       -1.33375968984992       -2.96313064387018
H           -5.30822844139943       -0.42036135154447       -3.11991011468708
H           -5.10288074084964       -3.61993109825575        2.56000524650674
H           -5.31100599694645       -4.92086514077784        1.36484849379833
H           -3.68425840862274       -4.27381850578945        1.68646341364716
H           -3.33982439429590       -2.04391914385782        2.43168907107121
H           -2.46470335452852        0.21494604148110        2.35158043464544
H           -2.71789336567494        2.40035663923241       -1.74762079367173
H           -1.43251171942696        3.21729613085536       -0.86918747870128
H           -1.60892464692520        0.19581994697175       -1.23018152395466
H           -0.76035720013672        1.28464632459455       -2.32156166105006
H           -0.92786937635661        1.75943527178571        1.43936094825891
H            0.75030894047190        2.00482235925987       -0.36272682546891
H            2.26952195088348       -0.86318222500878        1.21268173551514
H            2.44453098471273        0.94638770456745        0.85872172115130
H            3.23185082684247       -0.07301944742226       -3.21076155363293
H            3.17794868069702       -1.84165385029147       -2.72947801833984
H            4.95867745619407        1.41513988251728       -2.26050720905488
H            6.87422420134775        1.76115508826577       -0.80525297493477
H            8.10329007675374        1.82321389514840        1.27079904206157
H            9.10348670316885        1.34091325304525       -0.13463863490302
H            9.55099102994142        0.81527713440799        1.50645118973292
H            6.99330062373970       -4.38056283480360        1.26838499252379
H            5.34127813289172       -3.85965365506669        0.85633603268813
H            6.51517174424513       -4.22981600796771       -0.43464644937674
H            4.77280973013306       -2.69634890997938       -1.07560671907357
H           -0.02615879213529       -1.55996062151842       -1.05990772023782
H           -0.95141719156097       -1.17354640144252        0.41978053039226
H            0.60087217782689       -2.01921434589594        0.52383660315990
H           -4.62658542887806        2.88535164729660       -0.47377311915735
H           -4.32965083748151        3.18657948224022        2.53439002651020
H           -5.23902217904278        1.90362909121895        1.72295384926471
H           -5.76376815822645        3.57955579203930        1.57966852886785
H           -2.96041163856783        4.85533678868215        1.12792820570154
H           -3.07369704698165        4.78151210594454       -0.63812774716900
H           -4.48090726669797        5.21693649288779        0.32201714685190
H           -1.31792317478794        3.27441619263118        3.13441310064904
