72
 energy: -5.874029720684 xtb: 6.6.1 (8d0f1dd)
N           -1.51785468855129        2.79581395365462        2.24788891551658
C           -1.56347654664968        2.15945535436755        1.16663829937165
C           -2.74957141712588        2.06285890990015        0.25129077769564
C           -3.31769115530861        0.65142175329245        0.33201111146545
C           -4.29905035762386        0.24549245361853       -0.57447766911614
C           -4.84402729254521       -1.02303147858604       -0.52861784139565
O           -5.80849269259023       -1.49415610636171       -1.36759963750397
C           -6.38043581544594       -0.61582551634824       -2.30236878904358
C           -4.39977667387697       -1.93969955140117        0.45046164483283
O           -4.99274226070602       -3.16588267544963        0.41726092439298
C           -4.66820626778946       -4.09585722359866        1.41810260207839
C           -3.43099699712535       -1.53655298659263        1.34872166842556
C           -2.89684383808411       -0.25383466402199        1.28915209527747
C           -2.18444873372409        2.30064413264556       -1.17289440479731
C           -1.24668708902079        1.17851254868249       -1.64654476930518
C            0.01927692445651        1.12840489727015       -0.86806566024882
N            0.64986655616590       -0.05026616496923       -0.53013502712217
C            2.03370899586410       -0.05594520765124       -0.16078804918053
C            2.95213604809427       -0.54793656065429       -1.32493762590833
C            4.37530023975793       -0.44540262802639       -0.88468311159848
C            5.08843795268216        0.72294740558352       -1.07625282416158
C            6.39163685119660        0.83936210038367       -0.61755106371843
C            6.99526799817205       -0.21182061469451        0.04896159751993
O            8.26508932998514       -0.20994029588557        0.54267761160542
C            9.05326895133612        0.93474359525848        0.34819608805920
C            6.27341069620070       -1.40876028496575        0.25552652324621
O            6.95292583739716       -2.38980580853488        0.91320653486876
C            6.31997224301713       -3.62520873617321        1.12136950036878
C            4.97669415969766       -1.50663611059281       -0.20747674714192
C           -0.04347044966703       -1.30382991398553       -0.58961005954074
C           -3.87752722176315        3.07964659419847        0.57415813055590
C           -4.51719129334549        2.78347062078143        1.92875724804581
C           -3.40558153327801        4.53207259742763        0.53576308657645
H           -4.64788237276740        0.94158207626990       -1.31953699448029
H           -6.83578721834304        0.25334438859186       -1.81578962138609
H           -7.15553912478292       -1.19309057833899       -2.80412167157859
H           -5.64875779171161       -0.27646612911475       -3.04380926284049
H           -4.89441619179712       -3.70959130028766        2.41760662721064
H           -5.29278358149398       -4.96532129172313        1.21879652519282
H           -3.61414995930677       -4.39114575546412        1.37267298045532
H           -3.08370791620196       -2.20945982467673        2.11695069231659
H           -2.16198791494322        0.03390211137250        2.02534052486186
H           -3.00929591348388        2.38642047550763       -1.88074464976545
H           -1.63900327352274        3.24562907852768       -1.18602794430417
H           -1.78728412427717        0.23286320085763       -1.60332209965560
H           -0.99476852413230        1.37329250457246       -2.69484214919011
H           -0.69382959382869        1.65295065717590        0.68275794937937
H            0.66157175134343        1.99323549377016       -0.91359434769201
H            2.15550884723542       -0.68939754923778        0.72875082587057
H            2.32132760693156        0.95920126512541        0.13729306545521
H            2.78603004285797        0.06403800241844       -2.21418513380954
H            2.70300273840872       -1.58064364641888       -1.57350567486902
H            4.63669885955865        1.55321784322580       -1.59871445931640
H            6.92646233483815        1.75988792363409       -0.79160765181255
H            8.62270204648356        1.81250043766579        0.84191889183015
H            9.19679438960349        1.15228509919706       -0.71559337139348
H           10.01468373164827        0.70150271945329        0.80205258334976
H            7.05381914830474       -4.24530864584744        1.63379476227772
H            5.42922581453033       -3.52606048867510        1.75087511134910
H            6.04333392304518       -4.10278263071718        0.17529576849238
H            4.41606750095410       -2.41723616018157       -0.06275088393305
H           -0.21305783437656       -1.62334859047872       -1.62286825829044
H           -1.01094128991196       -1.23725238249394       -0.08245648044422
H            0.56084656116517       -2.05620378081757       -0.08812528038145
H           -4.64603461518931        2.95458733375649       -0.19783552700633
H           -3.78741632162486        2.91737108498157        2.71973806923033
H           -4.89402381998812        1.76419426663512        1.96510835006158
H           -5.34786203855720        3.46456751235468        2.09832045795911
H           -2.61919655144654        4.69442893628637        1.26579230418075
H           -3.04151524766196        4.81403088364652       -0.44905988936116
H           -4.23908971068404        5.18590048039656        0.78219725482578
H           -0.63095980610371        2.79381955705909        2.74747132743678
