72
 energy: 34.728885741322 xtb: 6.6.1 (8d0f1dd)
N           -1.78078836333158        3.00017853203894        2.36438965123571
C           -1.70198371455385        2.25975115455818        1.35605163532241
C           -2.78445056167766        2.09524553965964        0.32487891063263
C           -3.34488049477853        0.68232082579834        0.40519266336617
C           -4.25511306298776        0.23931876525740       -0.55563915299672
C           -4.79840450737486       -1.03055447832876       -0.50745200202326
O           -5.70566855287038       -1.53108502960225       -1.39191038818011
C           -6.24004465199185       -0.67308786150811       -2.36766682452432
C           -4.41401766548196       -1.91702930851733        0.52311811084285
O           -4.99260691855453       -3.14907459154693        0.48237614080285
C           -4.70697320061980       -4.05940073439246        1.51251238665121
C           -3.51072985554136       -1.47883253562741        1.47247844239660
C           -2.98793788095105       -0.19126636361443        1.41552794521472
C           -2.08859807454917        2.29453154587982       -1.04745033435243
C           -1.13483457822489        1.15459081961967       -1.45386275402072
C            0.12691089368378        1.09200873707961       -0.64082565638212
N            0.74812195474512       -0.02914518569938       -0.22227738065836
C            2.02821630883384       -0.08106303045916        0.21356180546433
C            3.28019255510606       -0.69086327842902       -1.98791064283520
C            4.51402868544882       -0.55986416075566       -1.34325741205371
C            5.21174229356502        0.65663593208237       -1.38402180082236
C            6.42073701800372        0.80761254706844       -0.74443538057666
C            6.97798621746157       -0.23998485742792       -0.02564542402729
O            8.15410509432941       -0.19286625437230        0.66742534262148
C            8.90438501742224        0.98966174880699        0.60575645203963
C            6.29701828789066       -1.47874438361047        0.03696332573600
O            6.94017593360875       -2.44669235632888        0.75827221699729
C            6.35561503898962       -3.71768229691128        0.84270030900204
C            5.09196747973166       -1.62459924158311       -0.60634452162559
C            0.01757400651433       -1.28874369088297       -0.30029197508257
C           -3.95424986208225        3.10242436666311        0.49003125921863
C           -4.71222946756059        2.85973810560655        1.79266725661277
C           -3.50601809323653        4.56026777970713        0.41617426212117
H           -4.54899243199995        0.90680401594635       -1.34973973083127
H           -6.71336044794216        0.20570994956975       -1.91790198107103
H           -6.99361690076381       -1.25996374430436       -2.89059591111582
H           -5.47844388828871       -0.34680344067491       -3.08378192143736
H           -4.99659390425282       -3.66338515343342        2.49156154761897
H           -5.30201128676946       -4.94460100298814        1.29306708692733
H           -3.64614824281665       -4.33308693813615        1.53026526981738
H           -3.20670349173230       -2.12793654010357        2.27838490188615
H           -2.30849317332456        0.12582703421134        2.19174303744987
H           -2.85834922584916        2.39204284470105       -1.81534341528906
H           -1.53192706280788        3.23202765922948       -1.02817173421866
H           -1.68356808484317        0.21481020972397       -1.42076587862854
H           -0.86486871249289        1.33027336980828       -2.50198273063180
H           -0.80394304742475        1.68918435041377        1.09572630826430
H            0.73386450886076        1.98909382827028       -0.63362814446238
H            2.36460160474406       -0.90253781199299        0.82440368054446
H            2.52805816509331        0.84334442964900        0.44046428589557
H            2.98526570677964        0.04660008936793       -2.71476873651781
H            2.89214699421921       -1.66827398737516       -2.16865830148596
H            4.78723086200217        1.48195585080943       -1.93439549077996
H            6.90293856830429        1.76704704643528       -0.79901214087705
H            8.37194106432730        1.82752460160119        1.06909732270861
H            9.16079856054130        1.25448976419491       -0.42624601835800
H            9.81381357184867        0.78449373699167        1.16838420255049
H            7.03566615960961       -4.31512276929421        1.44785501216370
H            5.36719631238064       -3.69257772968093        1.31215955577807
H            6.25686534426233       -4.18046351234439       -0.14736164448759
H            4.56570730466341       -2.56643167767833       -0.57771141974680
H           -0.12601972430330       -1.61447927225867       -1.33103498764524
H           -0.96345997624474       -1.19567953423542        0.17283225525080
H            0.58422445377886       -2.05577632343254        0.21963030997501
H           -4.65111455285526        2.92752997307861       -0.33962695725223
H           -4.05682381973728        3.05366433206455        2.63265720901418
H           -5.07040348140542        1.83454163294933        1.84639883065040
H           -5.56910640172591        3.52850200125603        1.85259175567297
H           -2.78978317606005        4.77065397405591        1.19953015771254
H           -3.06024291412884        4.79792987422221       -0.54610502390831
H           -4.36600050236237        5.21186056524467        0.55688880274337
H           -0.96081229465711        3.03453022485945        2.96388689820397
