72
 energy: 36.335342792937 xtb: 6.6.1 (8d0f1dd)
N           -1.90586873606780        3.08845242657886        2.40224392731271
C           -1.76744711742460        2.30385623656004        1.43438272020702
C           -2.79898621821943        2.11016061561692        0.35690015952098
C           -3.35728639440589        0.69657742071736        0.43760125048787
C           -4.23490801091060        0.23685052648570       -0.54548885600157
C           -4.77811462842528       -1.03314123464866       -0.49629252540527
O           -5.66029109294680       -1.54621318301142       -1.40001605893862
C           -6.17808592617045       -0.69958168942304       -2.39414870405986
C           -4.42132134949013       -1.90623270735574        0.55483968268563
O           -4.99279471908446       -3.14219506414190        0.51106213516979
C           -4.72498304984657       -4.04337115127119        1.55351818298151
C           -3.54936541507980       -1.45276699811099        1.52564608751250
C           -3.03172810099482       -0.16326931710516        1.46969449288836
C           -2.05112217428406        2.29234400330364       -0.99118273496698
C           -1.09442380437521        1.14415758171082       -1.37246035091236
C            0.15860215299733        1.08835134912080       -0.54409680111520
N            0.76514342304222       -0.01192844731194       -0.07747366842138
C            1.98257103780559       -0.03613070201353        0.47110029765167
C            3.44186954935669       -0.77058711513325       -2.28963918757862
C            4.59170733630478       -0.60800879936183       -1.54092414392839
C            5.27413480704647        0.62764305927300       -1.51961031063972
C            6.43432003951022        0.79345429586089       -0.80448751664198
C            6.96779280432997       -0.25212155981845       -0.06004811480539
O            8.09005173118479       -0.18769808723258        0.70946319207660
C            8.82535789515654        1.00623060723895        0.71398427850024
C            6.31120985732156       -1.50836726873950       -0.05873408668288
O            6.92466176042553       -2.46991245062400        0.69314598622828
C            6.37223264357454       -3.75692865782173        0.71962614381336
C            5.15744653171044       -1.67167764526896       -0.78091618100870
C            0.04040429730283       -1.27651732524423       -0.17197734424967
C           -3.98355165961971        3.11157406171600        0.45308905629521
C           -4.79399110247878        2.89618119037783        1.72916737033851
C           -3.54665524017333        4.57193741552108        0.36097320890977
H           -4.50490079198638        0.89135201101943       -1.35807946230675
H           -6.66034072634747        0.18353993751193       -1.96312958871081
H           -6.92185523124721       -1.29207783951075       -2.92501684858720
H           -5.40476253497522       -0.38023286068396       -3.10061706062777
H           -5.04423853835217       -3.64557776384145        2.52254718796534
H           -5.30542330867844       -4.93574699188438        1.32509933988285
H           -3.66262443206228       -4.30714876337728        1.59954597771559
H           -3.26534447148272       -2.09139310183956        2.34688476602654
H           -2.37815076532941        0.16532028274174        2.26247621040720
H           -2.79443031925472        2.39670726787189       -1.78424637238891
H           -1.48620151342296        3.22425339925303       -0.95605204780496
H           -1.64484219773896        0.20533263290717       -1.33686975828124
H           -0.81622361024016        1.30998092298477       -2.42111759257236
H           -0.86358522845335        1.71470258930606        1.27378617038994
H            0.75027676510769        1.99338286997357       -0.51125678909862
H            2.33489713988320       -0.89864047690697        1.00380852325854
H            2.51831819111787        0.88258535848995        0.63021670145802
H            3.08952659867129        0.00890393837338       -2.94266040740524
H            3.00607297733744       -1.73711214926483       -2.42652390493289
H            4.86273431264786        1.45144769707082       -2.08054267904248
H            6.89631324562888        1.76419647512787       -0.81162158917605
H            8.25429990150635        1.82620857553073        1.16313843347074
H            9.14004948793394        1.29438956813946       -0.29526512153559
H            9.70379895882735        0.80627776781424        1.32520417520230
H            7.02015659884917       -4.34327502925854        1.36736905926746
H            5.35235856693137       -3.76632307016084        1.11199799317946
H            6.36630994010867       -4.20741712370268       -0.28097018209099
H            4.64986344835264       -2.62220435302117       -0.80087727497944
H           -0.07796383806526       -1.59890748663098       -1.20636720751816
H           -0.94853539411732       -1.18005578822706        0.28434223185398
H            0.59116313197444       -2.04871692802551        0.35765456500957
H           -4.64418999525893        2.91063845886049       -0.40025310783324
H           -4.17663101257180        3.11709813205493        2.59115499867978
H           -5.14771340074921        1.87022629859166        1.79537468602947
H           -5.65880406867298        3.55714616476711        1.73474595753537
H           -2.86491947169393        4.80833660061894        1.16661386025706
H           -3.06742233088895        4.78969641973536       -0.58925225866184
H           -4.41675489492543        5.21813927889429        0.45207564479305
H           -1.11849163182890        3.14070971747960        3.04336096603680
