  25
        -42.24780832
 C          3.2226301170        1.1322869780        0.0190465795
 N          2.2723685604        0.0517842827       -0.0006120241
 C          2.5414598956       -1.2456693209       -0.0095111135
 N          1.3883029527       -1.9537305028       -0.0096063720
 C          0.3515919663       -1.0675237050       -0.0001442963
 C          0.9078595699        0.2010348990        0.0064649828
 C          0.0811179008        1.3962133685       -0.0006738152
 O          0.4885100009        2.5325939103       -0.0160523755
 N         -1.2708138397        1.0670561576        0.0006083536
 C         -2.2286758186        2.1656631040       -0.0075488668
 C         -1.8481069618       -0.1904620702        0.0064470663
 O         -3.0343107962       -0.3553702524        0.0112868501
 N         -0.9695881289       -1.2983008841        0.0016352282
 C         -1.5256296255       -2.6371212632       -0.0033100946
 H          3.7225896364        1.1778517230        0.9875637262
 H          3.9731334290        0.9907691071       -0.7574022628
 H          2.6907780576        2.0690210413       -0.1460542237
 H          3.5225777792       -1.6781342741       -0.0169433463
 H         -1.6754859995        3.1007690943       -0.0131543419
 H         -2.8946933237        2.0863504843       -0.8657820004
 H         -2.8403519478        2.1217961187        0.9010599287
 H         -1.2114172252       -3.1850192486        0.8852720992
 H         -1.2248428538       -3.1730550626       -0.9038413070
 H         -2.6106271888       -2.5385796032        0.0054796520
 H          1.3212320764       -2.9617055989       -0.0180739830
