25
 energy: 71.180864179645 xtb: 6.6.1 (8d0f1dd)
C            3.53665566109247        0.99876983630157        0.17644421998745
N            2.46676670788181        0.04972785460082        0.11421717553873
C            2.69333373055305       -1.28259912396455       -0.02648079622771
N            1.50044060886141       -1.93550189040908       -0.10993782335323
C            0.47305613704691       -1.03322385448179       -0.03166073632580
C            1.05356144375737        0.26544518175867        0.09579764980602
C            0.32017815892136        1.41651405230384        0.07693912548692
O            0.32036019636362        2.59316901692620        0.29599444953770
N           -1.90724525716716        1.24347314552622       -0.07737880051000
C           -2.81739914376961        2.34966827230172       -0.26385174751933
C           -2.26025160971465        0.09800986117725        0.24495002963911
O           -3.11283071404310       -0.60454312826094        0.63598014989177
N           -0.81317001154142       -1.21471111685104       -0.01844933856138
C           -1.29348370747382       -2.57251263303606       -0.14548219630804
H            3.58547475282961        1.48380951681490        1.15424169624383
H            4.45505931377571        0.47523194506007       -0.11982389501887
H            3.41759224871167        1.85830507615423       -0.47175117828545
H            3.62913975024077       -1.71512086672493       -0.27137696550324
H           -2.17197353016457        3.17023685671046       -0.55852775533505
H           -3.49725371255229        2.13191658592072       -1.08436524823277
H           -3.42244279455400        2.59745148402425        0.60694549707402
H           -0.62623335396780       -3.25789513295306        0.39437946230941
H           -1.35088508767375       -2.78954062245667       -1.21787194588881
H           -2.28324780557834       -2.69904945849474        0.29581710811304
H            1.41922053672515       -2.91657595385072       -0.27166867923897
