25
 energy: 67.931220886674 xtb: 6.6.1 (8d0f1dd)
C            3.68026679574819        0.89711510826728        0.17723818783565
N            2.69060538257789       -0.12343047811104        0.13181974387969
C            2.94225463902683       -1.43989958630312       -0.03413739145357
N            1.77014158365106       -2.12145489776734       -0.08510561911338
C            0.70073397379585       -1.23573633551847       -0.02265241152242
C            1.29977036290110        0.07449032766937        0.12269440402597
C            0.63668996875843        1.22043641072508        0.13155154408998
O            0.40321543470218        2.35617511209149        0.40971444534476
N           -2.63769724233608        1.54515714496543       -0.02166587926229
C           -3.32320905784038        2.72810427073957       -0.31099940110696
C           -2.88501077578702        0.46089616950734        0.37486705015163
O           -3.08193491204817       -0.60914317918112        0.75533362615915
N           -0.54809352056050       -1.40746196128970       -0.04459747784381
C           -1.16248438090232       -2.68781745632209       -0.14643830625238
H            3.53381275558606        1.60066317749814        0.99693554019967
H            4.57843596228509        0.33651861891239        0.39636838207844
H            3.79560721915127        1.47868438011581       -0.74354018968483
H            3.89262455318012       -1.88301854065772       -0.15205382336612
H           -2.52255077859694        3.44436498525718       -0.45701457385943
H           -3.91933157088615        2.59508485674757       -1.21141985194879
H           -3.98336174507009        2.98831154523756        0.51508436258724
H           -0.47012616718066       -3.42540705083523        0.20117176050892
H           -1.46082888785405       -2.86186811128962       -1.18746126955655
H           -2.07389574221906       -2.74221533159393        0.48444458993849
H            1.68095375380938       -3.10458812742064       -0.21871903979920
