25
 energy: 65.164147809124 xtb: 6.6.1 (8d0f1dd)
C            3.72054700343124        0.87176430122693        0.15709053963221
N            2.73580977102907       -0.15245119606494        0.13179486001872
C            2.99277471899967       -1.46976119453626       -0.03360219984892
N            1.82000224000569       -2.15222536952937       -0.08275313804874
C            0.74765853179948       -1.27145843661635       -0.02730843625729
C            1.34552271912357        0.04711370105296        0.11679705528801
C            0.69437985045388        1.19417389590922        0.14432011992853
O            0.37311075978892        2.30801220987723        0.40498063707085
N           -2.77199867303052        1.58061975332730       -0.01712194842571
C           -3.39906025817922        2.79178602167691       -0.31903375850972
C           -3.00436088385415        0.50894520108129        0.42320521509357
O           -3.14034630810951       -0.57363415801786        0.80739958955468
N           -0.49930387096038       -1.45318636303294       -0.05472609762143
C           -1.13604994184824       -2.72198323864356       -0.14843443525349
H            3.58372916471622        1.55127145623824        1.00364515681935
H            4.64272669513560        0.33128210304005        0.31203375812009
H            3.80729871743537        1.41319084379616       -0.79703999225631
H            3.94814158027267       -1.90758250097221       -0.14846906107351
H           -2.58558593180760        3.49482778423159       -0.45693785577442
H           -3.98633138954149        2.67578365240516       -1.22896446000025
H           -4.05889974203337        3.07322410325535        0.50108463857004
H           -0.47604931120474       -3.48504473743891        0.23316435862977
H           -1.39812536530010       -2.89607645132269       -1.19665497621452
H           -2.08152460221772       -2.72363553609769        0.43605617657501
H            1.73089976324687       -3.13636604411115       -0.21535529384111
