25
 energy: 51.136657531846 xtb: 6.6.1 (8d0f1dd)
C            3.50179570436386        1.03352668007469        0.17045190313156
N            2.42332282248028        0.08868579418706        0.08554011476538
C            2.64677593731309       -1.26186826941624       -0.01802985461000
N            1.44337688675832       -1.90057400005306       -0.11446865362989
C            0.43672038878304       -0.99321154800626       -0.03952004148213
C            0.99641620028299        0.30085704699687        0.07260752669123
C            0.18060111156703        1.43576338157972        0.11001707782216
O            0.26497118541264        2.62856370418253        0.28209292973592
N           -1.74642601537529        1.18687071347816       -0.06241389626697
C           -2.72059416940719        2.27385249286269       -0.25338813594182
C           -2.10104876176549       -0.02569336755424        0.21370987953167
O           -3.11473417523133       -0.56167222294548        0.53008238400122
N           -0.88640169890431       -1.17980647904185       -0.00894624474450
C           -1.31956292787301       -2.55844609197892       -0.12287402815595
H            3.61452330063658        1.43939767508150        1.18386782922969
H            4.42254167775696        0.55873776631008       -0.20025647422531
H            3.33171816589148        1.92454810595369       -0.42148441508238
H            3.56597244456327       -1.73604616627792       -0.25728396655517
H           -2.10795193566069        3.13754384836742       -0.50808013000033
H           -3.42624789666484        2.02742285875000       -1.06181946969481
H           -3.36161620090159        2.50472082942000        0.59848100424577
H           -0.68622685979585       -3.24274291365087        0.46835797144721
H           -1.30548966491684       -2.82662167880459       -1.18656995742257
H           -2.33307304868003       -2.67904113576746        0.25573891742969
H            1.35402244383853       -2.88644853851728       -0.25683119168543
