25
 energy: -1.885002931397 xtb: 6.6.1 (8d0f1dd)
C            3.33505728206718        1.14584687655885        0.12213896032225
N            2.33686963927977        0.12084545263839        0.01318989970396
C            2.59478641172347       -1.25803507193671        0.01037409158451
N            1.37553935510462       -1.90394051747428       -0.04238082534880
C            0.38890562029370       -0.98996009671594       -0.01248999485157
C            0.92051442264507        0.29246451806348        0.02474282558433
C            0.05073598708880        1.41778337503291        0.05358875630243
O            0.37650301100486        2.60212219555429        0.03389722300091
N           -1.39493054433559        1.07032241636628        0.03717142262495
C           -2.36199844238438        2.16221798489655       -0.12644174097171
C           -1.89175010517768       -0.18895040673691        0.10263641309381
O           -3.07638085221763       -0.43932408966130        0.09454789695522
N           -0.95175057298120       -1.24302599569837        0.03296524496073
C           -1.41672346785282       -2.61267771776075       -0.07173113182704
H            3.74158016528215        1.25027954704540        1.15594670459378
H            4.17501901751909        0.92904609341461       -0.55239142516555
H            2.88852556708278        2.09040846697352       -0.17690219989814
H            3.55225673334456       -1.73917683816515       -0.00077096320412
H           -1.76570800511859        3.07320896741094       -0.18788182491089
H           -2.98130575972539        2.05017249339909       -1.03008786922722
H           -3.02883305336569        2.21304976817439        0.73676491623881
H           -1.01688267507149       -3.22725184405040        0.74195242753588
H           -1.15574905275594       -3.05928758574373       -1.03977456754469
H           -2.50216814846067       -2.58068332298772        0.02961164896221
H            1.27380745157380       -2.90813931205924       -0.06428744643126
