25
 energy: 0.000000000000 xtb: 6.6.1 (8d0f1dd)
C            3.23720163006194        1.16630919979326        0.08434469647475
N            2.29877817382611        0.07527477071623        0.03981603040599
C            2.58028210190900       -1.21425402444508        0.03006176031096
N            1.43813958087363       -1.93419271955128        0.00098261760884
C            0.39035688448383       -1.05887472636071       -0.00790371836672
C            0.93510056364412        0.21347819449412        0.01709077491437
C            0.09450143893243        1.40504303904423       -0.00410947031874
O            0.49712751527797        2.54126714362870       -0.00342325688240
N           -1.25076640035757        1.06271879480407       -0.03085478223738
C           -2.21907211982101        2.15522099834493       -0.05001256985998
C           -1.81739487048744       -0.20012725993278       -0.04692818574614
O           -2.99983886758376       -0.37846417018721       -0.07008878229737
N           -0.92618586207120       -1.30210215599479       -0.03682761578324
C           -1.46982264913417       -2.64643102187190       -0.06029820460571
H            3.71247264356769        1.21471455160235        1.06488849150277
H            4.00791497605742        1.03430808813993       -0.67357694370751
H            2.69910007168542        2.09770118228144       -0.09130154882931
H            3.56654120610678       -1.63682992603973        0.04233140067262
H           -1.67107961066214        3.09322851271934       -0.02552706933167
H           -2.82428953597071        2.09428624779827       -0.95318082946668
H           -2.87644029173232        2.07745725625962        0.81450067533302
H           -1.17061996399332       -3.19584890659852        0.83242232437030
H           -1.14560257411436       -3.17511610292205       -0.95688275822323
H           -2.55549792440841       -2.55659984320617       -0.07459039797972
H            1.38130855184625       -2.94313852034425       -0.01389874181052
25
 energy: -2.687824245980 xtb: 6.6.1 (8d0f1dd)
C            3.23155720645682        1.17869584739855        0.08610774349197
N            2.29675460023813        0.09224453232434        0.03895057314713
C            2.59871119298235       -1.23427398995840        0.03203659896731
N            1.45327519794920       -1.98278553191653        0.00193457951626
C            0.40273416216946       -1.08438600627286       -0.00812964886399
C            0.92100326180117        0.20946249266369        0.01601035873816
C            0.09564069802382        1.39495597906561       -0.00502382701208
O            0.49439632522980        2.56100375945868       -0.00319606817833
N           -1.26726915320418        1.06047438210978       -0.03221452234004
C           -2.22729742948669        2.16246574659967       -0.05136103366804
C           -1.82497194345010       -0.19295582981821       -0.04854832385589
O           -3.02247103731083       -0.37146347014326       -0.07244926694457
N           -0.93538174883118       -1.30146857857384       -0.03748601285885
C           -1.48340932672409       -2.63408130947316       -0.06003703689676
H            3.72366432619330        1.21545156132005        1.06195734237480
H            3.99192156165860        1.04936234802092       -0.68586300618780
H            2.69164551424043        2.11041723511475       -0.07488210676231
H            3.57905634032968       -1.64422690434815        0.04747298463204
H           -1.66995532086321        3.09700166422941       -0.02757583473167
H           -2.83622480783934        2.11379034383318       -0.95414921997995
H           -2.88779663616412        2.09802657902053        0.81322403925756
H           -1.17387796341042       -3.18009734860498        0.83218780709442
H           -1.15204560122462       -3.15932728469813       -0.95693956950719
H           -2.56830283432312       -2.53749042270676       -0.07233855661059
H            1.48085808349534       -3.03176719247287       -0.01265409667428
25
 energy: 4.044793708277 xtb: 6.6.1 (8d0f1dd)
C            3.22196304219648        1.18655657197220        0.08745529170889
N            2.28910462549680        0.10382990153692        0.03751864480743
C            2.61140578446136       -1.24829678794007        0.03610712566108
N            1.47076464924185       -2.03467818664608        0.00419639622886
C            0.41435169820255       -1.12051768285419       -0.00851546487393
C            0.90148457141476        0.19392558947374        0.01425299347378
C            0.09618287880743        1.37138866507716       -0.00610817003625
O            0.48625275119323        2.55388621331492       -0.00219373783031
N           -1.28978353218186        1.06297666809298       -0.03461527528237
C           -2.23647895845845        2.17776845662838       -0.05373647426676
C           -1.82982435673195       -0.18070127110463       -0.05113827109961
O           -3.03384291797398       -0.36405230829305       -0.07632840839527
N           -0.94632600529261       -1.29552773340074       -0.03849878652980
C           -1.50388132070852       -2.61632932796322       -0.05962883703837
H            3.74093314337429        1.20944141647158        1.05290039895855
H            3.96620255403520        1.07403049776168       -0.70616757441962
H            2.67940288389150        2.12197569314942       -0.04552004265972
H            3.59118390757328       -1.63998959661273        0.05702238778924
H           -1.66659086718637        3.10650688440399       -0.03106310476376
H           -2.85012710211386        2.14198310988671       -0.95533178729339
H           -2.90049564490790        2.12807905763799        0.81058342633179
H           -1.18488760880287       -3.16159728536458        0.83051512493064
H           -1.16881378384001       -3.14079534398297       -0.95635151208240
H           -2.58786645222723       -2.51411223843938       -0.06853200948606
H            1.64190072847307       -3.12672236063398       -0.00978843768535
25
 energy: 9.171512812940 xtb: 6.6.1 (8d0f1dd)
C            3.21497614144266        1.18819717682407        0.08741482297268
N            2.28633977107150        0.10200782479212        0.03768042885058
C            2.61445369653779       -1.25211150724523        0.03917278938211
N            1.48180510324224       -2.05538282561994        0.00617429037284
C            0.42006805296370       -1.14030782458556       -0.00877771338807
C            0.89577712355925        0.18022211284651        0.01385966739168
C            0.09654555380067        1.35881692306042       -0.00618046563019
O            0.48414505897017        2.54025569275399       -0.00085921601095
N           -1.29955962100626        1.06837305382031       -0.03658411778192
C           -2.24001018600612        2.18809891714698       -0.05604894266135
C           -1.83090312114082       -0.17586732499327       -0.05328440646507
O           -3.03375242087701       -0.36617878212570       -0.07971902573790
N           -0.94797138336858       -1.29176364572621       -0.03924152456178
C           -1.51654813232526       -2.60822233919996       -0.05924362537873
H            3.75320157676929        1.19983827379335        1.04287158052574
H            3.94430746177187        1.09581830123028       -0.72366111390133
H            2.66698068704627        2.12575599035267       -0.01946809284284
H            3.59944611469333       -1.63344152902541        0.06526682735354
H           -1.66490067574006        3.11351643655795       -0.03433097205970
H           -2.85588295379163        2.15731364902087       -0.95658115227122
H           -2.90519087007765        2.14510047731732        0.80805313048391
H           -1.19637287557121       -3.15434454744917        0.82965966052145
H           -1.18553815697809       -3.13352828675980       -0.95675528885308
H           -2.60019369131370       -2.50099788848904       -0.06507079583668
H            1.73099241426383       -3.16213972612549       -0.00731284832642
25
 energy: 10.346425430556 xtb: 6.6.1 (8d0f1dd)
C            3.21213693034893        1.18754737733615        0.08709061252872
N            2.28675854832202        0.09752478653167        0.03871948212074
C            2.61292233466436       -1.25190029369388        0.04111198168270
N            1.48492545517104       -2.05846409300576        0.00734880581304
C            0.42128552600559       -1.14586120518620       -0.00908522289649
C            0.89665994884543        0.17414492589071        0.01352049830055
C            0.09712868050713        1.35579023150429       -0.00615513309715
O            0.48521382841261        2.53317052587158        0.00063754202898
N           -1.30091553194024        1.07174933584476       -0.03785076920820
C           -2.24008770675088        2.19140744857042       -0.05739086269301
C           -1.83106372730780       -0.17490181409339       -0.05473587896850
O           -3.03174440774116       -0.36893642389879       -0.08176997318082
N           -0.94667134240830       -1.28984979290126       -0.03979443854171
C           -1.52074623099418       -2.60635032202367       -0.05899971223299
H            3.76062352842399        1.19234033188577        1.03570636211749
H            3.93147302945270        1.10819383831766       -0.73366446174927
H            2.65961716661340        2.12453564181293       -0.00447684716749
H            3.60108898359998       -1.62936108709910        0.07084047935825
H           -1.66465442866282        3.11618731683885       -0.03630293468384
H           -2.85645107132482        2.16078629950916       -0.95750674414290
H           -2.90495534009858        2.14958520238479        0.80693811901575
H           -1.20119507088596       -3.15312646405837        0.82930634520161
H           -1.19381141438417       -3.13221439516853       -0.95734095290909
H           -2.60419417064092       -2.49692193116844       -0.06290327803911
H            1.75887115070884       -3.16604683782934       -0.00620912250999
25
 energy: 10.171286049171 xtb: 6.6.1 (8d0f1dd)
C            3.21121456623731        1.18682297272708        0.08679502352887
N            2.28769043825007        0.09436163055668        0.03999487001391
C            2.61072424855984       -1.25109304250505        0.04261745751103
N            1.48463036312366       -2.05725696176486        0.00815407835740
C            0.42072495986158       -1.14656294642846       -0.00950930405054
C            0.89817529633070        0.17213162239310        0.01282474414530
C            0.09762526844568        1.35549122799945       -0.00620069398940
O            0.48662621456566        2.53068868554810        0.00214288636528
N           -1.29991424542057        1.07269591443513       -0.03874913678412
C           -2.23911152923927        2.19156242009674       -0.05810473000155
C           -1.83136057213107       -0.17490276256434       -0.05570699081307
O           -3.03077257661793       -0.36978180325576       -0.08303134593067
N           -0.94585190331065       -1.28904203814058       -0.04033016101133
C           -1.52148684052716       -2.60641301503976       -0.05893536640537
H            3.76605312556349        1.18717095735084        1.03065329222159
H            3.92381585642838        1.11460643282507       -0.73944910849618
H            2.65586463126712        2.12246849793834        0.00397184524053
H            3.60007743624982       -1.62736585654781        0.07494663101678
H           -1.66451335970396        3.11671636882365       -0.03741625983139
H           -2.85574854895681        2.16034790955646       -0.95800835444860
H           -2.90354883375149        2.14968817975449        0.80656019425400
H           -1.20160872116458       -3.15310029740879        0.82903278581065
H           -1.19649150983236       -3.13211241021058       -0.95783336132368
H           -2.60479628284228       -2.49650179178440       -0.06162223616874
H            1.76419718655099       -3.16159129218270       -0.00576286306346
25
 energy: 9.856167853156 xtb: 6.6.1 (8d0f1dd)
C            3.21117635006256        1.18668576798918        0.08660240511170
N            2.28813494213261        0.09352731880215        0.04094649197238
C            2.60977738912682       -1.25094640497394        0.04347671135385
N            1.48372542077064       -2.05660739970646        0.00859959151591
C            0.42015003636199       -1.14619194174640       -0.00987238857636
C            0.89863056602157        0.17218800674177        0.01219216790337
C            0.09781468785857        1.35560871243956       -0.00619288261629
O            0.48722838408107        2.53078275413415        0.00304502294169
N           -1.29916342540376        1.07236215008529       -0.03923575106898
C           -2.23846124817573        2.19102405977573       -0.05837769507892
C           -1.83162061177883       -0.17495015454582       -0.05613539408029
O           -3.03086542543091       -0.36944353394568       -0.08352213394786
N           -0.94588117904573       -1.28895625933806       -0.04071417968389
C           -1.52118651809225       -2.60674821952439       -0.05898755612896
H            3.76912013274322        1.18488025544601        1.02820812887990
H            3.92064222560447        1.11679139513859       -0.74208857970666
H            2.65472858484408        2.12158723622835        0.00750010534239
H            3.59915156157112       -1.62723099729244        0.07712498648431
H           -1.66427634176416        3.11650234059807       -0.03783687323139
H           -2.85532721459365        2.15959230810550       -0.95816203887764
H           -2.90272093280091        2.14908844034994        0.80648082287867
H           -1.20057353750239       -3.15315292177571        0.82882360360074
H           -1.19643943275038       -3.13220399028564       -0.95805457443142
H           -2.60445263215266       -2.49705983452452       -0.06114403764706
H            1.76290288624878       -3.15810048600318       -0.00564205676193
25
 energy: 9.601993480631 xtb: 6.6.1 (8d0f1dd)
C            3.21125691029532        1.18673054804379        0.08640150583110
N            2.28836410219232        0.09330045209879        0.04207155432911
C            2.60932376788308       -1.25114660748934        0.04426193283844
N            1.48294214226084       -2.05662504323637        0.00900599208233
C            0.41980033530963       -1.14590249439214       -0.01030083085959
C            0.89869334333601        0.17256118021109        0.01152183325120
C            0.09789389743097        1.35559243871723       -0.00611924194652
O            0.48746864581841        2.53120522569761        0.00380936874234
N           -1.29875313868840        1.07189417500949       -0.03969955597204
C           -2.23805223051221        2.19062294901033       -0.05859636123768
C           -1.83180535280652       -0.17492825987664       -0.05645699061296
O           -3.03114235944938       -0.36902185457177       -0.08379063339545
N           -0.94608249249194       -1.28902235849804       -0.04113566980439
C           -1.52087684648592       -2.60698921117110       -0.05908271793776
H            3.77195865195232        1.18317625534852        1.02610258768847
H            3.91813157338624        1.11839875548880       -0.74442392757820
H            2.65407469127616        2.12115798852219        0.01041253978880
H            3.59852393074797       -1.62762796883065        0.07912077782580
H           -1.66397033033933        3.11624458701742       -0.03816046727304
H           -2.85515040161640        2.15913387771372       -0.95825036489143
H           -2.90217285660553        2.14871830813950        0.80642038232773
H           -1.19955429662726       -3.15315283154686        0.82861431325128
H           -1.19614063291923       -3.13234240709353       -0.95821380169833
H           -2.60413416721133       -2.49757449695979       -0.06084372474404
H            1.76161778180032       -3.15537460518019       -0.00563460385786
25
 energy: 9.516974897253 xtb: 6.6.1 (8d0f1dd)
C            3.21134412927137        1.18681779774792        0.08627021642172
N            2.28830260779197        0.09350166504349        0.04313389559571
C            2.60942402256122       -1.25147436241745        0.04465289946719
N            1.48270994989355       -2.05714016722448        0.00920548525697
C            0.41985269877732       -1.14587432471842       -0.01067195687587
C            0.89850353185637        0.17282858921136        0.01109725457863
C            0.09785602124210        1.35545922648851       -0.00601465864683
O            0.48729825923457        2.53141878303892        0.00413924330617
N           -1.29884550357527        1.07170438262419       -0.04000067004644
C           -2.23806663984715        2.19063429095811       -0.05869592285527
C           -1.83179557141553       -0.17488957041110       -0.05656650474341
O           -3.03127732358612       -0.36896571515814       -0.08370554477921
N           -0.94620542610717       -1.28915867681402       -0.04147386181852
C           -1.52080176671624       -2.60701746912644       -0.05918471992480
H            3.77353534239943        1.18260984310024        1.02497901974745
H            3.91693155047952        1.11901854180773       -0.74568570139500
H            2.65403056600974        2.12120457700153        0.01176781916407
H            3.59845589873471       -1.62813998397263        0.08031571589034
H           -1.66376555856962        3.11612999016055       -0.03830193432504
H           -2.85527525935100        2.15920119839568       -0.95825981515794
H           -2.90208013997260        2.14878805690407        0.80640201437467
H           -1.19926964023657       -3.15312114833567        0.82850807992198
H           -1.19608423419083       -3.13251489811524       -0.95827858594898
H           -2.60408001170487       -2.49768404677503       -0.06081458756109
H            1.76151716495724       -3.15430797724167       -0.00578328349922
