25
 energy: -42.544704166394 xtb: 6.6.1 (8d0f1dd)
C            3.21884195182098        1.18196457605043        0.08994283845427
N            2.27642676850489        0.09083950394617        0.05762699812093
C            2.54843858601558       -1.22693244698204        0.07620226008422
N            1.45470311909883       -1.97405327833849        0.02190925427113
C            0.40791287799897       -1.09953669638418       -0.01860088172404
C            0.90291770415914        0.20083990701147        0.00937528734772
C            0.08019055637125        1.38415521018174       -0.00167405144230
O            0.47827029585616        2.53644881770729        0.00123243543454
N           -1.28153088840644        1.07855626541353       -0.03613064672027
C           -2.23572468822360        2.18322091705759       -0.05453974128121
C           -1.82700565668126       -0.19200256587005       -0.05584617303927
O           -3.02695490993465       -0.35656026807726       -0.08039370634642
N           -0.94881280878465       -1.27716396621961       -0.05235149800359
C           -1.50531302905336       -2.61306425533297       -0.06108716681235
H            3.74991918033712        1.19458994748028        1.04345733785862
H            3.95447039232179        1.07367031401433       -0.70931376002333
H            2.67581940452542        2.12092883635046       -0.02738957199596
H            3.55297853422661       -1.61278586517928        0.06119909698637
H           -1.67614958159596        3.11910762715780       -0.03613121119427
H           -2.84544585344800        2.13041443142567       -0.95588184540575
H           -2.89465918893820        2.11664053947545        0.81120658450214
H           -1.18382150240397       -3.15326665280761        0.82796976234186
H           -1.17211986343918       -3.13761829774063       -0.95435697556562
H           -2.58745508435855       -2.52296221414869       -0.06871958434687
H            1.99612986270232       -3.60620883194117       -0.03760469798528
