25
 energy: 0.000000000000 xtb: 6.6.1 (8d0f1dd)
C            3.23720163006194        1.16630919979326        0.08434469647475
N            2.29877817382611        0.07527477071623        0.03981603040599
C            2.58028210190900       -1.21425402444508        0.03006176031096
N            1.43813958087363       -1.93419271955128        0.00098261760884
C            0.39035688448383       -1.05887472636071       -0.00790371836672
C            0.93510056364412        0.21347819449412        0.01709077491437
C            0.09450143893243        1.40504303904423       -0.00410947031874
O            0.49712751527797        2.54126714362870       -0.00342325688240
N           -1.25076640035757        1.06271879480407       -0.03085478223738
C           -2.21907211982101        2.15522099834493       -0.05001256985998
C           -1.81739487048744       -0.20012725993278       -0.04692818574614
O           -2.99983886758376       -0.37846417018721       -0.07008878229737
N           -0.92618586207120       -1.30210215599479       -0.03682761578324
C           -1.46982264913417       -2.64643102187190       -0.06029820460571
H            3.71247264356769        1.21471455160235        1.06488849150277
H            4.00791497605742        1.03430808813993       -0.67357694370751
H            2.69910007168542        2.09770118228144       -0.09130154882931
H            3.56654120610678       -1.63682992603973        0.04233140067262
H           -1.67107961066214        3.09322851271934       -0.02552706933167
H           -2.82428953597071        2.09428624779827       -0.95318082946668
H           -2.87644029173232        2.07745725625962        0.81450067533302
H           -1.17061996399332       -3.19584890659852        0.83242232437030
H           -1.14560257411436       -3.17511610292205       -0.95688275822323
H           -2.55549792440841       -2.55659984320617       -0.07459039797972
H            1.38130855184625       -2.94313852034425       -0.01389874181052
25
 energy: -0.512286773095 xtb: 6.6.1 (8d0f1dd)
C            3.22840101989200        1.17847363143429        0.08578500029286
N            2.29206552195086        0.09199805350100        0.03920481343970
C            2.59560374505597       -1.23416170286497        0.03261172166796
N            1.45969048168788       -1.99714338119671        0.00222391041637
C            0.40362245558031       -1.09197639536094       -0.00807442047745
C            0.91735957925485        0.20709069213241        0.01611190759464
C            0.09329399815780        1.39660479144003       -0.00495231750440
O            0.49232298746945        2.56272060253423       -0.00278447106344
N           -1.26945832214000        1.06477278942488       -0.03244217969737
C           -2.22972289982988        2.16769107593472       -0.05164796552604
C           -1.82555153077449       -0.18936023022874       -0.04877091693072
O           -3.02318383084498       -0.36666596736798       -0.07281425474125
N           -0.93637720004520       -1.30046391870862       -0.03755551617234
C           -1.48577901855316       -2.63108701892578       -0.05999597769931
H            3.72342251071716        1.21284282434020        1.06032834863353
H            3.98767827914356        1.04924526464025       -0.68744007801021
H            2.69235041411557        2.11295718685665       -0.07252720281305
H            3.57585305760693       -1.63933778513559        0.04850476089165
H           -1.67428681219957        3.10358334641164       -0.02800604197396
H           -2.83919691796765        2.11889320322670       -0.95413033344514
H           -2.89060325637224        2.10325762957298        0.81271394372619
H           -1.17395134238918       -3.17564226101371        0.83205263088284
H           -1.15278514936414       -3.15478829303598       -0.95691267950839
H           -2.57056809902234       -2.53499503988074       -0.07190242755325
H            1.52201499680667       -3.06548049555821       -0.01254635828213
25
 energy: 14.928576010506 xtb: 6.6.1 (8d0f1dd)
C            3.21621039049796        1.18529124281798        0.08678825249985
N            2.27822377859303        0.10473086092926        0.03806698026305
C            2.60216720952463       -1.24855367112977        0.03763777026665
N            1.48175602906952       -2.07013673947629        0.00475226759043
C            0.41522950985085       -1.13684341204382       -0.00850560160075
C            0.89163756049378        0.18889412160968        0.01404677661554
C            0.09071182765210        1.37531773597948       -0.00596209868707
O            0.48187888730879        2.55871276772656       -0.00105547080898
N           -1.29649718607797        1.07490042840281       -0.03509327213745
C           -2.24379455961807        2.19048343589220       -0.05422192923932
C           -1.83259778959569       -0.16935390538600       -0.05151981518632
O           -3.03730475528588       -0.35141354402847       -0.07690360930952
N           -0.95068443379476       -1.28933336952822       -0.03863242223685
C           -1.50870031611521       -2.60753390672129       -0.05954039143696
H            3.73972976454280        1.20333906195648        1.05018224350797
H            3.95834960752954        1.07109337707774       -0.70900139001925
H            2.68295058420025        2.12696409667225       -0.04229561650615
H            3.58242327278764       -1.62989628414620        0.05914199243530
H           -1.67839151782063        3.12228251782077       -0.03179678752841
H           -2.85800776856051        2.15277987220621       -0.95546882316979
H           -2.90802667731973        2.13905042130816        0.80993849586525
H           -1.18286651651245       -3.15015918362929        0.82961192441471
H           -1.16814224212143       -3.12916152436058       -0.95565606410683
H           -2.59247913888937       -2.51063139021766       -0.06775377722099
H            1.74843914759701       -3.21179440755995       -0.00972573811684
25
 energy: 30.516226381341 xtb: 6.6.1 (8d0f1dd)
C            3.20673504940372        1.18628257370532        0.08656143936568
N            2.27220456745243        0.10266162193865        0.03870794731247
C            2.60273495323723       -1.25514716190981        0.04206507814324
N            1.49867485750933       -2.10875091953464        0.00714853565082
C            0.42243543386503       -1.16361738717343       -0.00914803478159
C            0.88169590167651        0.17187346346115        0.01336440279406
C            0.08862436405081        1.36208016737188       -0.00589412310940
O            0.47767689237077        2.54479019509104        0.00096691720053
N           -1.31183457676085        1.08707693701888       -0.03748868029294
C           -2.25318672969928        2.20815316508944       -0.05695225668670
C           -1.83637951358162       -0.15785314020172       -0.05405285809325
O           -3.04004271055162       -0.34884431057066       -0.08080620380818
N           -0.95470000242167       -1.27949217650909       -0.03964901161980
C           -1.52477968794573       -2.59257006898872       -0.05914281352625
H            3.75258556796969        1.19087153340012        1.03814833644532
H            3.93078966673445        1.09359836058476       -0.72980502562851
H            2.67061071198461        2.13258531983728       -0.01257382641679
H            3.59058197946247       -1.61973470850126        0.06952526143393
H           -1.68460818271477        3.13792605034347       -0.03569149722316
H           -2.87082095143760        2.17592246610173       -0.95660232733576
H           -2.91945508909611        2.16409116045642        0.80664277092691
H           -1.19346787881333       -3.13440644777255        0.82826793844638
H           -1.18531072873033       -3.11337078947856       -0.95598109294566
H           -2.60834556444923       -2.49392115072123       -0.06352925950807
H            1.89979633842124       -3.30117615086643       -0.00704772059599
25
 energy: 39.119103477677 xtb: 6.6.1 (8d0f1dd)
C            3.20365154192604        1.18467631986446        0.08599832727437
N            2.27082662533537        0.09812571410506        0.04048354367774
C            2.59688080558517       -1.25644262178385        0.04574037516592
N            1.50250229530689       -2.11880149385637        0.00938680149791
C            0.42205797652875       -1.16894882407307       -0.01027485182553
C            0.87995834876846        0.16630909507229        0.01260791097237
C            0.08690759585550        1.36064348942754       -0.00569072538428
O            0.47661930589032        2.53883794310783        0.00265594716141
N           -1.31738045628153        1.09606630755482       -0.03893062298760
C           -2.25743409059379        2.21633487851900       -0.05825540273355
C           -1.84012488704537       -0.15170691818823       -0.05569851738674
O           -3.04110949518997       -0.34855331910445       -0.08274916193765
N           -0.95619684411612       -1.27123203852450       -0.04074557873411
C           -1.53030131221535       -2.58590071444356       -0.05902222808348
H            3.76001197118596        1.18253173940896        1.02974743133507
H            3.91642116203932        1.10498973799103       -0.74039720718545
H            2.66509432541683        2.13145090088491        0.00229704501904
H            3.58943531457358       -1.61337636904877        0.07640295966136
H           -1.68934352888024        3.14591791840469       -0.03768207242489
H           -2.87575085092854        2.18343180424592       -0.95743017767326
H           -2.92328852200366        2.17260421878496        0.80571742092483
H           -1.19677359600580       -3.12727534161101        0.82745821840600
H           -1.19276814137914       -3.10636932162910       -0.95650572495112
H           -2.61378739100669       -2.48895397471026       -0.06114423215578
H            1.97610651517020       -3.35533052822626       -0.00693558148528
25
 energy: 44.883118149977 xtb: 6.6.1 (8d0f1dd)
C            3.19961145645551        1.18123947060536        0.08513082207885
N            2.26048382642060        0.09768506892087        0.04250910934874
C            2.57509765853075       -1.25512718828256        0.05187776540661
N            1.49984824818239       -2.13618443320618        0.01628528919502
C            0.41567542211249       -1.17285254906208       -0.01204130698546
C            0.86927680841728        0.16579378201051        0.01075290989637
C            0.08293911493458        1.36358714526686       -0.00527049192708
O            0.47042628665072        2.53913083120964        0.00324849391921
N           -1.32756631079624        1.11111812056458       -0.04013200230109
C           -2.26394286701400        2.22988777757171       -0.05909732736103
C           -1.84728653659332       -0.13860724048611       -0.05706889311337
O           -3.04640445971789       -0.34059652072360       -0.08377856707032
N           -0.96488785836186       -1.25509184456229       -0.04260777638630
C           -1.53761060182576       -2.57382713010428       -0.05904043136416
H            3.76472871127798        1.17206492757846        1.02159340530255
H            3.90284950490767        1.10873242462713       -0.74828619531516
H            2.66593791162512        2.13181909891002        0.01307513765819
H            3.57285338308527       -1.60309285820386        0.08153256512394
H           -1.69456936587444        3.15829769360398       -0.03902757763260
H           -2.88208627892251        2.19485386859958       -0.95823445595919
H           -2.92852657609986        2.18481974268379        0.80573201974888
H           -1.19701955419873       -3.11410366372135        0.82530178740099
H           -1.19665958762324       -3.09388887211692       -0.95536527319685
H           -2.62103467469844       -2.48525623076184       -0.05936489057932
H            2.14008100706207       -3.48137281874941       -0.01069021974016
25
 energy: 38.590061596232 xtb: 6.6.1 (8d0f1dd)
C            3.19641170535754        1.17483047850836        0.08478320586851
N            2.24333025989868        0.09691543374037        0.04445404200165
C            2.52900159471332       -1.25091010523589        0.05544018636586
N            1.47983165833140       -2.14069398049617        0.02272437703211
C            0.40051594214271       -1.16022455430145       -0.01296598146398
C            0.85591983841411        0.17681564492246        0.00866072701413
C            0.07752364730089        1.37695504756419       -0.00518251333602
O            0.46003775692929        2.54597974878211        0.00306252010973
N           -1.33469976812718        1.13005257443725       -0.04079100562449
C           -2.26915868631169        2.24370662280171       -0.05967734202613
C           -1.85428659564372       -0.12476376246808       -0.05737975009477
O           -3.05167870219394       -0.32874029309973       -0.08416699679191
N           -0.97698236019673       -1.23250743121680       -0.04310250456996
C           -1.54289789456228       -2.56008537213788       -0.05868731912538
H            3.76571305992091        1.16186966182622        1.01599896698158
H            3.89343910438574        1.10581389409906       -0.75183580393833
H            2.67155129011452        2.13160718806680        0.01909325227297
H            3.53480413899701       -1.59677525439429        0.08311162880156
H           -1.69927399529783        3.17091419589233       -0.03996726576413
H           -2.88624214507718        2.20417737160849       -0.95894544886905
H           -2.93211949330295        2.19476235238634        0.80578470148344
H           -1.19486553841663       -3.10054396980480        0.82237806221260
H           -1.19648958647387       -3.08067266755485       -0.95246190024100
H           -2.62644372678442       -2.48306901284030       -0.05827140332989
H            2.36927316381846       -3.66638520891344       -0.01502253882183
25
 energy: 25.906922440719 xtb: 6.6.1 (8d0f1dd)
C            3.19904197622817        1.16625033062453        0.08506902394615
N            2.22775598763193        0.08475121276620        0.04767174931901
C            2.43728146908190       -1.23809122740845        0.05134396097246
N            1.40171752956924       -2.05370477943700        0.02326843578147
C            0.36237869665565       -1.08044000338694       -0.00865422443315
C            0.85725997107561        0.22110976722221        0.00740335231445
C            0.06726025712367        1.41817231730763       -0.00739971104168
O            0.44834360476038        2.56108912537186        0.00260101005802
N           -1.31707795830518        1.14249060682028       -0.04020184158171
C           -2.26371356490774        2.24460734968119       -0.05913122214748
C           -1.85619112233016       -0.12966468178535       -0.05606012226939
O           -3.05158422428253       -0.31456258185767       -0.08333368300343
N           -0.98600076688513       -1.21020118731111       -0.03973563745101
C           -1.53759678722223       -2.55547947109212       -0.05795751179075
H            3.75919198699177        1.15842299855483        1.01821050260033
H            3.89834105381931        1.09172189008504       -0.74524661166087
H            2.68074600515481        2.12814626390269        0.01105915288866
H            3.46358292371778       -1.60696391146384        0.07788001937587
H           -1.70157359286359        3.17513287663129       -0.03945907673307
H           -2.88124374487631        2.20098032289426       -0.95771035581587
H           -2.92779517020700        2.19125172571920        0.80500840051420
H           -1.18846316726021       -3.09587233819868        0.82021174134234
H           -1.18753513365891       -3.07555386210713       -0.94870976624334
H           -2.62225434116188       -2.48485346549234       -0.05929423625209
H            2.63034278008684       -3.94971067586856       -0.01979945254184
25
 energy: 22.035593023060 xtb: 6.6.1 (8d0f1dd)
C            3.20408889450037        1.17061549519875        0.08437753500478
N            2.23211788648093        0.08587539687063        0.04735233195055
C            2.40296346533753       -1.23066871924304        0.05007702646339
N            1.32951808176185       -1.97323891514952        0.02044625292475
C            0.33699149981551       -1.01677355155132       -0.00729488342093
C            0.86632250444812        0.25939110768459        0.00783588075619
C            0.05495744072406        1.45199601664341       -0.00720328284009
O            0.44299288199635        2.59123453176054        0.00352647357886
N           -1.30578915249986        1.14550861061148       -0.03908865856911
C           -2.26324447996219        2.24304425878240       -0.05819638053848
C           -1.86236108075006       -0.13531062988416       -0.05516258248487
O           -3.05975217470351       -0.29343598149438       -0.08227550962500
N           -0.99705867487082       -1.20262646715692       -0.03880114400410
C           -1.53140714405570       -2.55566498023910       -0.05806959359260
H            3.75272234911969        1.16136825376902        1.02510280695881
H            3.90922901618894        1.08029581250156       -0.73912040335202
H            2.68452962028506        2.12950400636112       -0.00247099580786
H            3.42900600484382       -1.61904062824891        0.07384147306722
H           -1.70741331758920        3.17798917224286       -0.03786581840357
H           -2.87949882813729        2.19561460733517       -0.95726375614849
H           -2.92668925765950        2.18468534565736        0.80586911693856
H           -1.18040586083453       -3.09175785537991        0.82123443133961
H           -1.17685760684311       -3.07090183392618       -0.94891843323479
H           -2.61618768173191       -2.48740145017018       -0.06090470498780
H            2.77344028207161       -4.21127300080329       -0.01999328582572
25
 energy: 21.063527165350 xtb: 6.6.1 (8d0f1dd)
C            3.20714896687179        1.18057036288839        0.08448709850686
N            2.23525173347402        0.10260267261125        0.04533913478020
C            2.39737059263749       -1.22603891737730        0.04743350463394
N            1.27329617029621       -1.92255321079508        0.01633581020511
C            0.32397716312131       -0.97097767020424       -0.00550331964185
C            0.87097959066171        0.29753019335315        0.00897814083859
C            0.04185919830553        1.48196472067309       -0.00768426029091
O            0.43463116937406        2.62832098530231        0.00342189663497
N           -1.30458492660676        1.15296729401130       -0.03851620068092
C           -2.26885942091169        2.24692643351532       -0.05729064153406
C           -1.87133044315102       -0.13096251369985       -0.05454255831268
O           -3.07137694528789       -0.26986107527919       -0.08124518087157
N           -1.00858335989689       -1.19449400541571       -0.03799520960473
C           -1.52365670722495       -2.55083171912891       -0.05795803044822
H            3.74737739465983        1.16886446909508        1.03180163072487
H            3.92027725212026        1.07297326131236       -0.73175754826099
H            2.69088246593627        2.13722477152719       -0.01373172995516
H            3.40579299735354       -1.62954078926177        0.06909432273884
H           -1.71505604963766        3.18344557399212       -0.03635841455738
H           -2.88151416257841        2.19256461777407       -0.95750219661637
H           -2.92913897954997        2.18065036458844        0.80769486239931
H           -1.17106199334920       -3.08585386503584        0.82173705072430
H           -1.16470520088303       -3.06431346199347       -0.94821618397074
H           -2.60885293007813       -2.48953640477844       -0.06246122382769
H            2.88209109227975       -4.50261348550222       -0.01852685746645
25
 energy: 21.160767793393 xtb: 6.6.1 (8d0f1dd)
C            3.20729030996043        1.18760967064104        0.08446495568825
N            2.23133617705105        0.12064041907370        0.04393789793614
C            2.40520486486771       -1.21720649385383        0.04369417977993
N            1.25668836167768       -1.89529381667872        0.01401857228400
C            0.32242484213281       -0.94647240159819       -0.00483642791932
C            0.87143606264392        0.32326803511971        0.01221094965195
C            0.03528791956037        1.49893629091321       -0.00628261694516
O            0.42878989826976        2.65071054953859        0.00208112648214
N           -1.30644471545205        1.15805746661371       -0.03744395915941
C           -2.27359413816940        2.24996765838674       -0.05671148115920
C           -1.87620972205170       -0.12467607207461       -0.05381495314297
O           -3.07732309570107       -0.25884425558857       -0.08040836321058
N           -1.01238672478954       -1.18902061642126       -0.03830864898402
C           -1.51654404960335       -2.54509450841546       -0.05826149508953
H            3.74291526220845        1.17746095088200        1.03599172029069
H            3.92890089250482        1.06916803258456       -0.72501626928694
H            2.69683993522001        2.14513968748522       -0.02223918902824
H            3.39750675647940       -1.62895819992609        0.06423232663207
H           -1.71919131790103        3.18582838267466       -0.03516162211505
H           -2.88376712796640        2.19224385326794       -0.95765894695083
H           -2.93215918983319        2.17958632502697        0.80850367004399
H           -1.16538506723131       -3.08173030055765        0.82192209763357
H           -1.15693332118910       -3.06035847626956       -0.94798852637942
H           -2.60269396134921       -2.48934544344376       -0.06383081796544
H            2.91022581659709       -4.71258813520834       -0.01606028293937
25
 energy: 20.914747160666 xtb: 6.6.1 (8d0f1dd)
C            3.20811433696213        1.19389358284952        0.08480304526126
N            2.22670533217652        0.13718726726300        0.04404306258732
C            2.41803219563109       -1.20319458137906        0.04175965356168
N            1.26863411388691       -1.88237780800669        0.01137872924213
C            0.32623155999175       -0.94009637553275       -0.00488027714877
C            0.87018464358631        0.33450015046944        0.01506887518853
C            0.03404491749924        1.50443982111013       -0.00605959081206
O            0.42515109315672        2.65932920354086        0.00060422366011
N           -1.30883879042238        1.15958010088156       -0.03711187249127
C           -2.27575880194883        2.25126887037912       -0.05650354839814
C           -1.87680055873709       -0.12013492552682       -0.05340380869300
O           -3.07787941251026       -0.25856768035745       -0.07971739069804
N           -1.01080451459857       -1.18765261314454       -0.03866942971409
C           -1.51294499502833       -2.54177550972539       -0.05821155279160
H            3.74252979435865        1.18333948986228        1.03819228248398
H            3.93322937899491        1.06927617703193       -0.72206475906160
H            2.70287661609159        2.15371532618362       -0.02546264868537
H            3.40176797462080       -1.62046177196356        0.06309775830650
H           -1.72062374611554        3.18654010663416       -0.03498716718162
H           -2.88516666697109        2.19274464220094       -0.95760223217326
H           -2.93357271321735        2.17996605625233        0.80889442986013
H           -1.16370049398672       -3.08045347617693        0.82231214822003
H           -1.15448709110523       -3.05933268816502       -0.94775092852965
H           -2.59995928093394       -2.48857454029890       -0.06413487826185
H            2.87524977655481       -4.83413022220977       -0.01656022758407
25
 energy: 20.340708345254 xtb: 6.6.1 (8d0f1dd)
C            3.21063450271930        1.20241670974585        0.08494334341666
N            2.22365822781565        0.15637833722519        0.04456252609503
C            2.43522756728113       -1.18183765834587        0.04080213446512
N            1.30163079395054       -1.87367272536111        0.01033372025720
C            0.33425135341140       -0.94507368352556       -0.00496157092903
C            0.86793749271448        0.33732661089596        0.01744235695202
C            0.03625305801791        1.50388973132587       -0.00539537675751
O            0.42232824051718        2.66105891900521        0.00020181009778
N           -1.31172693385779        1.15962894956664       -0.03692157292464
C           -2.27696991913488        2.25154634273489       -0.05653911652032
C           -1.87361024119030       -0.11586679250122       -0.05341664544659
O           -3.07433763303848       -0.26476355443736       -0.07979705405709
N           -1.00462262137735       -1.18839634979141       -0.03892451432618
C           -1.51035049947125       -2.53994401454572       -0.05830345333698
H            3.74436652370986        1.18869513832620        1.03891184614425
H            3.93517216282911        1.07288160265884       -0.72187226237495
H            2.70903875070664        2.16395687005966       -0.02616233011496
H            3.41316786893365       -1.60814044411361        0.06262161580923
H           -1.72120251669035        3.18643029422895       -0.03487016327308
H           -2.88617628944936        2.19358312371892       -0.95782942624398
H           -2.93486748447647        2.18060560757989        0.80883242068329
H           -1.16306025826121       -3.08069840682517        0.82239863415368
H           -1.15355541342505       -3.05959127141069       -0.94791929502408
H           -2.59796585505986       -2.48729878120237       -0.06436566578506
H            2.78699379076170       -4.92408595283993       -0.01673806481252
25
 energy: 20.042132478830 xtb: 6.6.1 (8d0f1dd)
C            3.21312803877902        1.20861380962117        0.08545073645650
N            2.22554710553366        0.16519873341398        0.04494535327551
C            2.44365321147477       -1.16819727477048        0.04187948636750
N            1.32885953634318       -1.87328622034629        0.01034685754952
C            0.34058968970577       -0.95570012474997       -0.00543145576311
C            0.86642328204552        0.33149389818547        0.01646174664222
C            0.03949670700912        1.49951200121686       -0.00603584192803
O            0.42164726893518        2.65678933491573       -0.00001633074812
N           -1.31317158351795        1.15900573891313       -0.03731500284593
C           -2.27685475674167        2.25098013768594       -0.05666238882453
C           -1.86921184001531       -0.11481934228794       -0.05341771299378
O           -3.06965441091742       -0.27178905023409       -0.07963026260892
N           -0.99850134364363       -1.18977134381997       -0.03881860087870
C           -1.51016209469278       -2.54056888534046       -0.05812078997288
H            3.74660605342485        1.19085867498058        1.03856155255510
H            3.93433461806152        1.07764032893736       -0.72289128331347
H            2.71172352338674        2.17012580419659       -0.02399734140970
H            3.42134414182770       -1.60107474244839        0.06391989535551
H           -1.72077951275897        3.18583552797300       -0.03528296301308
H           -2.88675394911739        2.19385667480246       -0.95777732906608
H           -2.93489835204103        2.18117073109029        0.80894062245140
H           -1.16323418624639       -3.08161755668142        0.82244969294234
H           -1.15446729333194       -3.06056885706026       -0.94793715570696
H           -2.59758341973377       -2.48623771485106       -0.06381652996028
H            2.71413423416740       -4.93842168117020       -0.01877105841476
25
 energy: 19.984677718583 xtb: 6.6.1 (8d0f1dd)
C            3.21383060404642        1.21028861446659        0.08524177507488
N            2.22814222988854        0.16499173925588        0.04503545337081
C            2.44384719120278       -1.16552711098179        0.04300939589817
N            1.33643760187244       -1.87585420212261        0.01206625686560
C            0.34235209028264       -0.96101652023438       -0.00523536290469
C            0.86584019109778        0.32684253771549        0.01535642494174
C            0.04086612167765        1.49710810024718       -0.00557332389208
O            0.42219508945615        2.65374378509272        0.00106342152872
N           -1.31330589680721        1.15895140996462       -0.03730300156006
C           -2.27646718890926        2.25071507365642       -0.05678986232476
C           -1.86751462154143       -0.11542292234667       -0.05357528416681
O           -3.06793325278970       -0.27382284194675       -0.08013853365683
N           -0.99658346432514       -1.18995787732427       -0.03853120597809
C           -1.51084350820120       -2.54148223797714       -0.05821195159697
H            3.74769455565814        1.19063463758809        1.03743184897601
H            3.93287712204968        1.07943812990033       -0.72440314831957
H            2.71084862318383        2.17068904852796       -0.02289770016536
H            3.42318899781423       -1.59940423247338        0.06414770599932
H           -1.72042506124494        3.18567048711235       -0.03520460098966
H           -2.88633717082809        2.19395630350336       -0.95806656665690
H           -2.93495653467126        2.18123976177824        0.80862116185873
H           -1.16361509500422       -3.08197459291947        0.82221763211783
H           -1.15478449892073       -3.06069144159145       -0.94809087122339
H           -2.59791676305107       -2.48614345577906       -0.06399771045030
H            2.69477730600016       -4.92394359094023       -0.01913805659907
25
 energy: 19.974870008127 xtb: 6.6.1 (8d0f1dd)
C            3.21393985269057        1.21045925105844        0.08552358614199
N            2.22924660652572        0.16399790650887        0.04489471941193
C            2.44300012891030       -1.16558887147213        0.04347833350015
N            1.33665034510266       -1.87674740756832        0.01228932596845
C            0.34242627160213       -0.96191314849939       -0.00550489043553
C            0.86558085947819        0.32567323890012        0.01426092524267
C            0.04102747458100        1.49671006614845       -0.00625730768748
O            0.42247956995370        2.65305783108212        0.00063589757671
N           -1.31322382815011        1.15904554063911       -0.03755854512098
C           -2.27635384686978        2.25061078260452       -0.05675308750429
C           -1.86731903231289       -0.11599959619671       -0.05349763022553
O           -3.06776961117114       -0.27382527159898       -0.07980377566719
N           -0.99651513286729       -1.18970273725369       -0.03847686322502
C           -1.51119526585511       -2.54185278411539       -0.05805583134449
H            3.74764683467959        1.19028610035022        1.03757966787921
H            3.93290258242477        1.07982954213846       -0.72408734498716
H            2.71046502177026        2.17041717770085       -0.02233869129710
H            3.42312721379677       -1.59922958979955        0.06471276079131
H           -1.72032057811992        3.18559561565417       -0.03542084262092
H           -2.88655932960974        2.19383741134417       -0.95781839132763
H           -2.93460942471973        2.18128789749098        0.80886470998590
H           -1.16354711236126       -3.08192425926135        0.82231367466213
H           -1.15515172467748       -3.06072323676326       -0.94798071135806
H           -2.59811046697919       -2.48618100311014       -0.06360554156060
H            2.69439726011416       -4.91809185380957       -0.02036025065120
25
 energy: 19.971615162361 xtb: 6.6.1 (8d0f1dd)
C            3.21388440786346        1.21047542667041        0.08507316827583
N            2.22972236816986        0.16346801932079        0.04484549945099
C            2.44251690155740       -1.16570436158620        0.04381587064399
N            1.33614961249260       -1.87695895364697        0.01350587382739
C            0.34238400872144       -0.96185210063527       -0.00511621335114
C            0.86533167531859        0.32553439354944        0.01437086328751
C            0.04096768840470        1.49682748960715       -0.00542435193606
O            0.42263320530311        2.65305433750657        0.00157467186435
N           -1.31314971419488        1.15921791280348       -0.03727477171538
C           -2.27631544516237        2.25061179653744       -0.05681709687724
C           -1.86733923770300       -0.11639099884441       -0.05353737990117
O           -3.06783025532248       -0.27344856795147       -0.08027130474068
N           -0.99665833121804       -1.18940543171251       -0.03826751477393
C           -1.51123425163536       -2.54201379565512       -0.05822867029065
H            3.74802013993062        1.19032045137098        1.03690125929498
H            3.93260533052083        1.07983592785467       -0.72488689313413
H            2.71004520155818        2.17014376965381       -0.02261368899979
H            3.42289121659270       -1.59927337656822        0.06452785380526
H           -1.72036583243451        3.18564682037588       -0.03517194014401
H           -2.88613021239466        2.19390757395595       -0.95815191841030
H           -2.93496926555130        2.18122051588342        0.80848807615561
H           -1.16365736685718       -3.08194810380089        0.82213993312433
H           -1.15475573408339       -3.06050110258454       -0.94814455224912
H           -2.59808453680133       -2.48629589274046       -0.06407771029145
H            2.69555309486120       -4.91744314719191       -0.02022516676788
