25
 energy: 0.000000000000 xtb: 6.6.1 (8d0f1dd)
C            3.23720163006194        1.16630919979326        0.08434469647475
N            2.29877817382611        0.07527477071623        0.03981603040599
C            2.58028210190900       -1.21425402444508        0.03006176031096
N            1.43813958087363       -1.93419271955128        0.00098261760884
C            0.39035688448383       -1.05887472636071       -0.00790371836672
C            0.93510056364412        0.21347819449412        0.01709077491437
C            0.09450143893243        1.40504303904423       -0.00410947031874
O            0.49712751527797        2.54126714362870       -0.00342325688240
N           -1.25076640035757        1.06271879480407       -0.03085478223738
C           -2.21907211982101        2.15522099834493       -0.05001256985998
C           -1.81739487048744       -0.20012725993278       -0.04692818574614
O           -2.99983886758376       -0.37846417018721       -0.07008878229737
N           -0.92618586207120       -1.30210215599479       -0.03682761578324
C           -1.46982264913417       -2.64643102187190       -0.06029820460571
H            3.71247264356769        1.21471455160235        1.06488849150277
H            4.00791497605742        1.03430808813993       -0.67357694370751
H            2.69910007168542        2.09770118228144       -0.09130154882931
H            3.56654120610678       -1.63682992603973        0.04233140067262
H           -1.67107961066214        3.09322851271934       -0.02552706933167
H           -2.82428953597071        2.09428624779827       -0.95318082946668
H           -2.87644029173232        2.07745725625962        0.81450067533302
H           -1.17061996399332       -3.19584890659852        0.83242232437030
H           -1.14560257411436       -3.17511610292205       -0.95688275822323
H           -2.55549792440841       -2.55659984320617       -0.07459039797972
H            1.38130855184625       -2.94313852034425       -0.01389874181052
25
 energy: -5.138116316222 xtb: 6.6.1 (8d0f1dd)
C            3.24639363700151        1.19017342470983        0.08612956351432
N            2.31566525635560        0.10266564928899        0.03830368089805
C            2.61565089645545       -1.22258720967400        0.03164201252147
N            1.44639682253709       -1.93719805085887        0.00294135371132
C            0.40496374173202       -1.06286560314608       -0.00724511445958
C            0.93647859610616        0.21944055599517        0.01588586345312
C            0.10760905025450        1.39172328758732       -0.00521027686162
O            0.50317154724232        2.55801450345175       -0.00519945854223
N           -1.25313660756339        1.04446875462695       -0.03061477545785
C           -2.21362104146206        2.14056597872907       -0.04953793040876
C           -1.81536885343459       -0.20752974897709       -0.04640259169860
O           -3.01204475010013       -0.38882357426184       -0.06950901825873
N           -0.93026864062985       -1.31197040062354       -0.03677133754417
C           -1.50440427203853       -2.64795922361287       -0.06243538221440
H            3.72625364364339        1.23939659669726        1.06735247014232
H            4.01513268768480        1.06005087415219       -0.67722819596688
H            2.69573798798839        2.11255841042979       -0.08903442457451
H            3.59908915846614       -1.63810481554639        0.04465408642127
H           -1.65295620781666        3.07250719062617       -0.02536387557390
H           -2.81900592239103        2.08667527421789       -0.95386765325622
H           -2.87095188925122        2.07045700185145        0.81645660505923
H           -1.22236229640381       -3.21377248844905        0.82787733647727
H           -1.19953868924225       -3.19167966462667       -0.95927197936778
H           -2.59022761027795       -2.53847889056502       -0.07575818970693
H            1.38355842308032       -2.93869922985040       -0.01075887215892
25
 energy: -4.824217143025 xtb: 6.6.1 (8d0f1dd)
C            3.25512396912220        1.22386661740704        0.08726548568841
N            2.33575804161220        0.13151346912156        0.03542357606420
C            2.65944939130795       -1.22108570613106        0.03564653782603
N            1.47025276561206       -1.93389474071719        0.00782732755631
C            0.42696900418376       -1.07548031065230       -0.00576772295947
C            0.94111704899662        0.22011840596706        0.01411074681431
C            0.12726321536851        1.36688173812123       -0.00723459366084
O            0.50197926067672        2.55469662175253       -0.00917771575797
N           -1.25103341531336        1.01773838932040       -0.03013276218900
C           -2.20034295726146        2.11839710915814       -0.04855440514175
C           -1.80058460805346       -0.22333393493198       -0.04529208564792
O           -3.00478763296308       -0.40691589576888       -0.06766788882611
N           -0.92789315503001       -1.33290189610411       -0.03649347316142
C           -1.56604909725864       -2.65027399153241       -0.06668183798606
H            3.74580234463780        1.28315437338228        1.06562037015742
H            4.02427799478277        1.11102922932542       -0.68171368709354
H            2.68992127543755        2.13840487071264       -0.08302597265718
H            3.64500794679826       -1.61967500829699        0.04982222397375
H           -1.62170687261171        3.04070205968465       -0.02507579789176
H           -2.80645128251276        2.07226819285513       -0.95338793068340
H           -2.85747930327210        2.05715904931162        0.81879578277486
H           -1.32558961088460       -3.24614128307330        0.81982304912656
H           -1.30683184970338       -3.21935596044505       -0.96611135486198
H           -2.65042180529446       -2.48710169714983       -0.07759246022113
H            1.40846399955885       -2.93074109914461       -0.00339151509502
25
 energy: 0.054543743910 xtb: 6.6.1 (8d0f1dd)
C            3.25918464523749        1.26534879356119        0.08688084707399
N            2.35837158279729        0.15659017981121        0.03255460510114
C            2.70897210175249       -1.21047235943068        0.04217940502726
N            1.51431312360904       -1.93067021154236        0.01568365112892
C            0.45501315830399       -1.10038405883418       -0.00348438605908
C            0.95173493258057        0.21110999072025        0.01246813926757
C            0.15032356801438        1.34123350306285       -0.01006241158124
O            0.50131173332367        2.54212946577874       -0.01480705205010
N           -1.24161708547102        0.98890513836751       -0.02953027478532
C           -2.18049433661082        2.09226985311403       -0.04718561452465
C           -1.77663596183677       -0.24656572372963       -0.04357732718050
O           -2.98579013618009       -0.42771946498072       -0.06462545832566
N           -0.91784792635670       -1.36718561360657       -0.03602526858657
C           -1.65035858986065       -2.65529595882772       -0.07301576847817
H            3.76293377272696        1.33898008183863        1.06000858739633
H            4.02905135942422        1.18163369065730       -0.68836753866268
H            2.67636356326091        2.17201262061417       -0.07434370691273
H            3.70407280172686       -1.58170072562795        0.05770541301137
H           -1.58447314632832        3.00424840591223       -0.02490861492394
H           -2.78701571459181        2.05162255026950       -0.95196349813941
H           -2.83608459585761        2.03801114320440        0.82173696792878
H           -1.47346188657500       -3.28907638376381        0.80810994185156
H           -1.46036724246688       -3.25356376747739       -0.97727602636481
H           -2.72920736346313       -2.40616642396147       -0.07972721164843
H            1.46392231077716       -2.92626612295751        0.00860649658365
25
 energy: 8.543942098596 xtb: 6.6.1 (8d0f1dd)
C            3.25546843975742        1.31013899259801        0.08494656732951
N            2.37819194684711        0.17786720298532        0.03011588511489
C            2.75743663884781       -1.19145427421232        0.05107461383483
N            1.57013434748673       -1.92619021950186        0.02618405392455
C            0.48075605874491       -1.13445754537684       -0.00079047543197
C            0.96280239251319        0.19361979648195        0.01082377848511
C            0.17236240807567        1.31784207155734       -0.01350503626807
O            0.50078351573949        2.52337935421945       -0.02130147782204
N           -1.22871765684523        0.96133947354028       -0.02870625428251
C           -2.15131592810000        2.07294497567766       -0.04532209470131
C           -1.75229658365191       -0.27307884976595       -0.04123012194270
O           -2.96641768821055       -0.43767636733049       -0.05993869535639
N           -0.91001374963946       -1.41576281940409       -0.03571617309379
C           -1.74475742178661       -2.67389005369054       -0.08140892502081
H            3.77284288516573        1.39817529265851        1.05127681015555
H            4.02417361971068        1.26045410242407       -0.69754253193631
H            2.65393070257313        2.20869595945210       -0.06448320752920
H            3.76830797842145       -1.52496285208785        0.06768363613384
H           -1.53088135836095        2.96987555510209       -0.02531327961121
H           -2.75870433706665        2.04334177874852       -0.94955485964646
H           -2.80439683892956        2.03261359412595        0.82591298672068
H           -1.63652556106727       -3.34125243763774        0.79071537419370
H           -1.62953195912799       -3.29365026846872       -0.98915374421930
H           -2.81152935976664       -2.34649749059767       -0.08281719119185
H            1.54011217660576       -2.92238636932522        0.02508425830856
25
 energy: 19.837757288272 xtb: 6.6.1 (8d0f1dd)
C            3.24579253159744        1.35261747817216        0.08170856947748
N            2.39558823060617        0.19124871506608        0.02917027898525
C            2.80064431331958       -1.16157319307698        0.06183638580961
N            1.63757384419995       -1.91856737754094        0.03819507362969
C            0.50275947965403       -1.17431313122315        0.00121080497290
C            0.97733982327545        0.16798995931681        0.00893180873815
C            0.19480894727490        1.30055406044481       -0.01734396710346
O            0.50865172755129        2.49830023793149       -0.02789197431781
N           -1.20757548281747        0.93835001805473       -0.02801049431317
C           -2.11703801295498        2.05730111133761       -0.04315361293352
C           -1.72756341176367       -0.29979529468863       -0.03866183626984
O           -2.94550687710517       -0.42945927677324       -0.05343947686792
N           -0.90567029008647       -1.47491036433161       -0.03632688151341
C           -1.84758793005808       -2.70365411159738       -0.09133198108335
H            3.77479668274559        1.45350575822438        1.04024198086568
H            4.00986994050339        1.33810943512979       -0.70832080612339
H            2.62561130173952        2.24242792273815       -0.05443643616947
H            3.83255709526450       -1.44787817540452        0.07895414223119
H           -1.47889070448375        2.94157176740963       -0.02604823972024
H           -2.72523779281225        2.03739356049786       -0.94605284670350
H           -2.76624947460055        2.02980283225059        0.83042241221044
H           -1.80943589019525       -3.39201165293501        0.76917023272681
H           -1.80805353690421       -3.33061498017647       -1.00067274349944
H           -2.89316290176405       -2.31055714682550       -0.08606258613571
H            1.63819305575033       -2.91680954982869        0.04494608925429
25
 energy: 30.380710034819 xtb: 6.6.1 (8d0f1dd)
C            3.23735840173559        1.37665712833911        0.07835838665201
N            2.40820571269897        0.19359633286550        0.03120149904119
C            2.82572267856837       -1.12557477810360        0.07108074654542
N            1.69715778132582       -1.90866529938988        0.04710241901268
C            0.51864952099094       -1.20164308415954        0.00119792200173
C            0.99501431423508        0.14657532045315        0.00669781850100
C            0.21321977760726        1.29411612052256       -0.02013197242207
O            0.53220273156374        2.47833984088429       -0.03279275494583
N           -1.17760101145433        0.92482181911880       -0.02795412259217
C           -2.09249309988612        2.04100668222374       -0.04144469346059
C           -1.70715684339185       -0.31920565832423       -0.03650536630580
O           -2.92493930920245       -0.41282855878518       -0.04650707112948
N           -0.90285840783183       -1.51902417095885       -0.03789091144692
C           -1.93085499393253       -2.72740709715808       -0.09972443119269
H            3.76923777011762        1.48216009307085        1.03205338202107
H            3.99259242965805        1.38078765864295       -0.71696771609974
H            2.60341862567941        2.25736184194097       -0.04919841044177
H            3.87329880023016       -1.37274999480381        0.08839939490940
H           -1.46490570268563        2.92916349911493       -0.02643002693555
H           -2.70118746093927        2.01836279668436       -0.94261741598491
H           -2.73775847889307        2.01164649774643        0.83333319008251
H           -1.94526034911964       -3.41923135221270        0.75155306926323
H           -1.94718466728721       -3.34620048320692       -1.00971368849265
H           -2.95220402560051       -2.28635297211909       -0.08747763099327
H            1.73054047374968       -2.90668358021383        0.06141228056048
25
 energy: 39.028644014025 xtb: 6.6.1 (8d0f1dd)
C            3.23732726743116        1.39158523987023        0.07600942739786
N            2.41946352148772        0.20091490662732        0.03332961374435
C            2.84677920785130       -1.10122505195058        0.07792894620076
N            1.73498644687602       -1.90449692719920        0.05228917295796
C            0.53570749789499       -1.21245526402871        0.00096331798268
C            1.00818654777485        0.14003293811749        0.00401242546459
C            0.22565652004739        1.28643388427633       -0.02218748416613
O            0.55534067972163        2.47322840747422       -0.03681033705551
N           -1.15296009054092        0.91212347403767       -0.02819945635325
C           -2.08160810104162        2.01994848011492       -0.04020074185670
C           -1.69083373352614       -0.33126966396398       -0.03453319508102
O           -2.90859899933740       -0.40996831265591       -0.04058531367050
N           -0.89735531061215       -1.53658420726105       -0.03862235656052
C           -1.98765982500794       -2.73190157515868       -0.10567727802415
H            3.76900228515750        1.49741047797822        1.02884956904721
H            3.98659263728081        1.39961611624541       -0.72289794507376
H            2.59201091818799        2.26339245426291       -0.04856911651205
H            3.89944458464296       -1.32847408566683        0.09677450234277
H           -1.47298543699460        2.92115997875928       -0.02600672013854
H           -2.69100867042854        1.98590800461470       -0.94063650091733
H           -2.72485112277798        1.97819950233549        0.83550332315692
H           -2.04043730120347       -3.43425636960906        0.74184038287160
H           -2.04532533609396       -3.35089656047671       -1.01993495357961
H           -2.99468609687219       -2.24111940418024       -0.08771217654122
H            1.79002657801881       -2.89827784039126        0.07210679051087
25
 energy: 39.601832156786 xtb: 6.6.1 (8d0f1dd)
C            3.24168300759513        1.38591353366415        0.07452256228842
N            2.41989048173195        0.19956078951314        0.03554438093697
C            2.84403631357815       -1.09005337135656        0.08064652912116
N            1.74121442658108       -1.90177058406906        0.05206430419724
C            0.53781319043611       -1.20685170486777       -0.00055034804386
C            1.01260054888816        0.14329495731933        0.00141150435807
C            0.22269875733991        1.28997026729019       -0.02319060343349
O            0.56729069482465        2.47639750718298       -0.03714663003598
N           -1.14138207708596        0.91512234499957       -0.02887330124402
C           -2.08417528255016        2.01471053757598       -0.03960313154506
C           -1.68932463807649       -0.32807221677396       -0.03371897593432
O           -2.90615155316302       -0.39470857683908       -0.03606509309475
N           -0.90066047945166       -1.53145830913816       -0.03967681069678
C           -1.99973522534564       -2.73409172167800       -0.10789606835289
H            3.76959682725376        1.48807830405363        1.02886101433934
H            3.98938594559847        1.38399856587655       -0.72301112987024
H            2.59846216575483        2.25643808814706       -0.05244017198087
H            3.89509112009508       -1.31802545514617        0.10074378731498
H           -1.49359193156576        2.92921027619780       -0.02491905652455
H           -2.69395870454560        1.96762545358249       -0.93978997139250
H           -2.72727457198331        1.95778242950094        0.83600126968430
H           -2.04764863799740       -3.42475937902901        0.73794344938625
H           -2.05157904146730       -3.33947015887318       -1.02034854927186
H           -2.99671339891082       -2.25756649453231       -0.08820929251182
H            1.80464673040208       -2.89224648042859        0.07473422845355
25
 energy: 40.198691919376 xtb: 6.6.1 (8d0f1dd)
C            3.24539217898880        1.38817005006909        0.07406852120846
N            2.42157260246278        0.20401485639400        0.03590394755601
C            2.84884854465436       -1.09114726175068        0.08212176605611
N            1.74183551302325       -1.90301601075299        0.05197975482697
C            0.54201037537607       -1.20466638472293       -0.00095481874995
C            1.01263373395437        0.14653629518898        0.00001602297204
C            0.22011790075756        1.28811402706410       -0.02409905598926
O            0.56805862940384        2.47798521536300       -0.03697603461975
N           -1.14179465473863        0.91427694956348       -0.02923939498726
C           -2.08628823785263        2.01254087946064       -0.03945644742310
C           -1.68814184182021       -0.32865516699552       -0.03295454307107
O           -2.90596658715105       -0.39703748880129       -0.03382146208259
N           -0.90047889494066       -1.52811641303167       -0.03981159127719
C           -2.00473268782891       -2.73418672857172       -0.10907698782859
H            3.77378967234661        1.49072340214076        1.02906737446561
H            3.99533570476331        1.38343293644853       -0.72294012085470
H            2.60189883069883        2.25869022286037       -0.05426689756299
H            3.89909746647375       -1.32141058948981        0.10312056285803
H           -1.49675598143467        2.92855223112916       -0.02422983193379
H           -2.69614446900893        1.96271452518650       -0.93972333268792
H           -2.72973325336917        1.95198693431795        0.83606852872108
H           -2.05303367412789       -3.42900657971483        0.73712005097877
H           -2.05902810049730       -3.34162601422141       -1.02379776152941
H           -3.00189682220954       -2.24737053325960       -0.08760115891236
H            1.80561872001230       -2.89247075170220        0.07651680601414
25
 energy: 40.752467993986 xtb: 6.6.1 (8d0f1dd)
C            3.24913863319566        1.38966904956873        0.07358230267687
N            2.42244635540209        0.20724027813472        0.03674373817231
C            2.85161428640929       -1.09162116855439        0.08338661039259
N            1.74153772025426       -1.90260243925928        0.05167145262085
C            0.54499100186655       -1.20219383317102       -0.00151008698939
C            1.01271308687852        0.14882379625189       -0.00122518924740
C            0.21597192435634        1.28782896415063       -0.02478544381674
O            0.56751322182306        2.47801465245092       -0.03608080554786
N           -1.14342342899139        0.91539113372915       -0.02974085549528
C           -2.08818221185995        2.01351761170079       -0.03946140400546
C           -1.68803955327147       -0.32936988075089       -0.03197234709718
O           -2.90671510513781       -0.39766468535364       -0.03085737376000
N           -0.90179614754823       -1.52552421776013       -0.04011202609079
C           -2.00953413153241       -2.73833823099173       -0.11040298878466
H            3.77771849062209        1.49297783863626        1.02900481288324
H            4.00171204984062        1.38149628253349       -0.72221209962267
H            2.60762316731302        2.26165199993801       -0.05689271113280
H            3.90176366957220       -1.32383903957295        0.10445550737536
H           -1.49795530379549        2.92904573442147       -0.02344478947165
H           -2.69797179720794        1.96330576469600       -0.93973400672538
H           -2.73208306264360        1.95154218756580        0.83569369515909
H           -2.05458411586884       -3.43446942538696        0.73575896491051
H           -2.06208868737695       -3.34507796443834       -1.02632182881596
H           -3.00579069504356       -2.24877036570478       -0.08751498483461
H            1.80563530068016       -2.89200544066175        0.07900575339428
25
 energy: 41.871637127839 xtb: 6.6.1 (8d0f1dd)
C            3.25224188295640        1.39170215043073        0.07324390909649
N            2.42351154200346        0.21017844897027        0.03798614232419
C            2.85434667186750       -1.09010937533937        0.08450577769737
N            1.74322484680826       -1.90074574059667        0.05151964800298
C            0.54811916868103       -1.20061052869619       -0.00199168344025
C            1.01371654300723        0.14982600463149       -0.00199403833287
C            0.21320119389581        1.28800330244112       -0.02500720784626
O            0.56753719384610        2.47698689378002       -0.03512712750189
N           -1.14413318702735        0.91615061932872       -0.03028837354859
C           -2.08871614781969        2.01453091337422       -0.03955967915309
C           -1.68738204584863       -0.33137008071650       -0.03100041986958
O           -2.90652185707108       -0.39863759744724       -0.02779281785067
N           -0.90288369105612       -1.52490719950946       -0.04056918745281
C           -2.01754177696354       -2.74461536009314       -0.11184397200334
H            3.78036769951046        1.49588871867914        1.02896942100128
H            4.00664205918077        1.38031222051464       -0.72135829886329
H            2.61317128324324        2.26523983989998       -0.05966287145718
H            3.90488965886157       -1.32217115113661        0.10455041127264
H           -1.49753779361512        2.92910226082968       -0.02273298134423
H           -2.69829450437439        1.96557312323511       -0.93993661640914
H           -2.73303514590069        1.95274191263765        0.83520020993291
H           -2.05986921421117       -3.44092697948836        0.73405294369816
H           -2.06878458034818       -3.34997434982436       -1.02846766794911
H           -3.01210419165561       -2.25301866736560       -0.08756767401473
H            1.80804905996597       -2.89012077636731        0.08190605015828
25
 energy: 42.955170509843 xtb: 6.6.1 (8d0f1dd)
C            3.25387394280879        1.39329982759057        0.07324787128375
N            2.42431538252818        0.21214688702252        0.03908954583956
C            2.85619890190073       -1.08800726519910        0.08496618289900
N            1.74550332284753       -1.89871892498568        0.05130090637590
C            0.55028235673205       -1.19992386568334       -0.00212660504842
C            1.01485373058624        0.15005987284472       -0.00196394709430
C            0.21293256347131        1.28850923002656       -0.02470539520316
O            0.56787849783960        2.47630848486744       -0.03443392153321
N           -1.14399359533854        0.91620752337180       -0.03069697245183
C           -2.08816109059675        2.01490265619019       -0.03972588044512
C           -1.68658456185413       -0.33326561763478       -0.03047873773127
O           -2.90576669111797       -0.39973167941737       -0.02599742590808
N           -0.90308784125638       -1.52526932284434       -0.04086809772872
C           -2.02484276358481       -2.74992003255576       -0.11262384703544
H            3.78110737891132        1.49817711855261        1.02926438561313
H            4.00900382983686        1.37988894099467       -0.72059259195903
H            2.61649042582766        2.26778343514697       -0.06156048580164
H            3.90717399032444       -1.31856757605979        0.10318918417658
H           -1.49628653543417        2.92879696286811       -0.02235126482734
H           -2.69742524080690        1.96777209781097       -0.94034274836626
H           -2.73276488997452        1.95422604595921        0.83478996312246
H           -2.06563289135691       -3.44568549479300        0.73335319866874
H           -2.07502911302996       -3.35439152030874       -1.02935653880617
H           -3.01816064599403       -2.25759976332215       -0.08787934565661
H            1.81033620466660       -2.88796941827032        0.08353646376474
25
 energy: 43.860529401649 xtb: 6.6.1 (8d0f1dd)
C            3.25478259881769        1.39429051223177        0.07349234445083
N            2.42497205523743        0.21341733963816        0.04002617066078
C            2.85747110111232       -1.08603570475911        0.08500490794281
N            1.74770468584395       -1.89706465603848        0.05077475678308
C            0.55172232539886       -1.19947731876867       -0.00207144650034
C            1.01585935085972        0.15033092399058       -0.00144054766007
C            0.21406871414426        1.28926072762274       -0.02416424989343
O            0.56823962972013        2.47652124779975       -0.03386363938729
N           -1.14340146637605        0.91595502246324       -0.03102061681893
C           -2.08735407936459        2.01471379344774       -0.03993666395833
C           -1.68580156157602       -0.33448462574814       -0.03032006851144
O           -2.90480020433386       -0.40072623446559       -0.02528636112667
N           -0.90252833994288       -1.52547740251525       -0.04101783171939
C           -2.03082403074244       -2.75396667017189       -0.11280831905518
H            3.78096303734176        1.49972565526545        1.02987528587433
H            4.01022396617966        1.37957143707408       -0.71978686972446
H            2.61833255729518        2.26918521858459       -0.06278910700230
H            3.90878231676053       -1.31478321156682        0.10104737345817
H           -1.49544083638844        2.92857715860100       -0.02219914994138
H           -2.69628892494395        1.96891026504917       -0.94083556831067
H           -2.73216309282634        1.95489096214944        0.83443567633157
H           -2.07057357917463       -3.44867388915831        0.73370847866371
H           -2.07993915126074       -3.35823370991075       -1.02937833831276
H           -3.02349060745118       -2.26125137355136       -0.08823183193223
H            1.81169820360589       -2.88614686509138        0.08381951183684
25
 energy: 44.547587624395 xtb: 6.6.1 (8d0f1dd)
C            3.25541535509029        1.39483555199842        0.07381257938381
N            2.42562607465071        0.21416135222144        0.04074249435868
C            2.85845155107189       -1.08462338004969        0.08487072274902
N            1.74948481616602       -1.89599838552399        0.04997098301810
C            0.55260037231024       -1.19905570365647       -0.00189933694164
C            1.01661912933487        0.15089944707370       -0.00066112855655
C            0.21563706877878        1.29003496984354       -0.02358657475381
O            0.56841791450099        2.47745332551036       -0.03335976204483
N           -1.14270389445266        0.91570567898897       -0.03124532863000
C           -2.08673547456288        2.01426670646211       -0.04014698562474
C           -1.68511861748160       -0.33485247508324       -0.03040340763747
O           -2.90391132975322       -0.40143439729788       -0.02540654067558
N           -0.90148852979585       -1.52521311055551       -0.04098668002194
C           -2.03531268942854       -2.75679958388994       -0.11257210464788
H            3.78074650777954        1.50077697195012        1.03055851264730
H            4.01115184466270        1.37936194838210       -0.71900470650521
H            2.61926141353793        2.26975350889981       -0.06349768837972
H            3.91002898293944       -1.31187241056316        0.09880882026701
H           -1.49529241594363        2.92857220617653       -0.02219822230745
H           -2.69543162726943        1.96889740590167       -0.94125960529248
H           -2.73168549035721        1.95461994210473        0.83414801991106
H           -2.07447738794640       -3.45030856851604        0.73485141463262
H           -2.08334652221646       -3.36144643131903       -1.02883233404652
H           -3.02774166315722       -2.26372719422777       -0.08872319468475
H            1.81201927947798       -2.88497877265885        0.08305394993024
25
 energy: 44.920543195051 xtb: 6.6.1 (8d0f1dd)
C            3.25592463003451        1.39503695998660        0.07404777274049
N            2.42623635405430        0.21442263170301        0.04113331028012
C            2.85911289805350       -1.08405974434292        0.08475599599407
N            1.75042437670328       -1.89558416784757        0.04917096962031
C            0.55295434103539       -1.19862669094674       -0.00172436341304
C            1.01705697314005        0.15163369815601        0.00007200290571
C            0.21666876565682        1.29058514909294       -0.02314933095500
O            0.56834248024764        2.47848936588718       -0.03294622376816
N           -1.14225924643410        0.91568922000054       -0.03131725552533
C           -2.08658872190095        2.01395079490998       -0.04029167757101
C           -1.68468015205513       -0.33453934749760       -0.03060025827084
O           -2.90334425149024       -0.40188487049286       -0.02604769460156
N           -0.90042036060076       -1.52459305012293       -0.04083764933565
C           -2.03774350581674       -2.75832238665710       -0.11218653425949
H            3.78086901857595        1.50134588355559        1.03102199812122
H            4.01199860216169        1.37925603927421       -0.71844405429348
H            2.61966555648087        2.26978427452011       -0.06376760792685
H            3.91083838862842       -1.31067388179145        0.09725547169413
H           -1.49576174216311        2.92878542412204       -0.02228197968633
H           -2.69521068964625        1.96820692295807       -0.94147168922403
H           -2.73161580673207        1.95389533291971        0.83396855330217
H           -2.07666041344636       -3.45077397906078        0.73614090271229
H           -2.08491251740414       -3.36363206248614       -1.02811376143106
H           -3.03013241066857       -2.26479457441450       -0.08920595847400
H            1.81145210152226       -2.88456833925343        0.08185295751257
25
 energy: 45.103327028044 xtb: 6.6.1 (8d0f1dd)
C            3.25636613510952        1.39521270163402        0.07413150914177
N            2.42687494162684        0.21441849565618        0.04122822609153
C            2.85963710135836       -1.08407079097459        0.08475986946591
N            1.75078239669201       -1.89554515369525        0.04856979382400
C            0.55300083921712       -1.19828221750373       -0.00155288509632
C            1.01733359988447        0.15234671758749        0.00069800626890
C            0.21699602248706        1.29082993853550       -0.02284176790735
O            0.56817367769281        2.47921848415799       -0.03259995369989
N           -1.14201954201189        0.91587493711597       -0.03120001373740
C           -2.08675528887390        2.01386218280115       -0.04034083743483
C           -1.68436426602539       -0.33391277118424       -0.03084482415112
O           -2.90301507547821       -0.40210664128472       -0.02701080624730
N           -0.89948152737959       -1.52399555321324       -0.04058850298075
C           -2.03887586638995       -2.75909994917493       -0.11183991514039
H            3.78139723334107        1.50178329604666        1.03113932071771
H            4.01274838811591        1.37951830927581       -0.71820873885395
H            2.61976901981186        2.26969443411144       -0.06373739036414
H            3.91145865655019       -1.31079020861043        0.09649520828701
H           -1.49641897406157        2.92905635396417       -0.02241748546624
H           -2.69544278115583        1.96726464858566       -0.94145184297734
H           -2.73179325577384        1.95315098682375        0.83391718602871
H           -2.07805700696027       -3.45071654496144        0.73723762765413
H           -2.08558652049908       -3.36513771363853       -1.02740889584530
H           -3.03110258288470       -2.26491749145663       -0.08976624261418
H            1.81058934354325       -2.88462784842615        0.08066725118410
