25
 energy: -42.485115944001 xtb: 6.6.1 (8d0f1dd)
C            3.20457287048439        0.93495217035042        0.20859630643932
N            2.29188852337963       -0.01302179179941        0.17345262099175
C            2.52773081854970       -1.34093811527081        0.18508861933125
N            1.32998048808577       -2.03558514439551        0.11047464283546
C            0.34100997400120       -1.12780616288610        0.06810361851099
C            0.90179030181830        0.14144755203958        0.13409365180713
C            0.10809313180091        1.33106659134088        0.06016578192367
O            0.49129676425978        2.48000105637466        0.08103860704972
N           -1.26600172224599        1.01667053563251       -0.05981641337753
C           -2.20054096796063        2.13019308270620       -0.13446116834877
C           -1.84817915639438       -0.22478538267517       -0.08605764035928
O           -3.04545892301373       -0.37668319982632       -0.16525434103351
N           -0.99882832939760       -1.33222229336645       -0.02600249504088
C           -1.56647729051489       -2.66203373389958       -0.05322866825601
H            4.23848311366680        0.65240021994086        0.13122612780426
H            4.15051894410658        2.99555013729611       -1.06501340180202
H            2.94782392706656        1.92083534549091        0.50995978861569
H            3.49074293538744       -1.77891563050763        0.29032595713863
H           -1.62110707185228        3.04938385817588       -0.13189887749457
H           -2.79152731743425        2.05225690369012       -1.04597319847998
H           -2.87446643333490        2.10746940175585        0.72170669842794
H           -1.30881590325508       -3.21400940553514        0.85380252778357
H           -1.22356990053557       -3.21062103875704       -0.93335997054062
H           -2.64835984890386       -2.54519725676987       -0.10380679121317
H            1.25120651036388       -3.03757187188897        0.08910816582754
