  72
        -99.21936404
 N         -1.9430106076        2.3589731923        2.6583069409
 C         -1.8717795500        1.8491781488        1.5168935055
 C         -3.0292000870        1.8518724155        0.5293397082
 C         -3.5736186298        0.4300143700        0.3729903789
 C         -5.5588878962        1.0244944462       -0.9708593508
 C         -4.5158848826        0.2222585015       -0.7504305983
 O         -4.1556295247       -0.8502660905       -1.5133376095
 C         -5.1092016487       -1.3540145771       -2.4250953905
 C         -3.6358270732       -1.9579781463        1.1980774042
 O         -4.8723649139       -2.1872479397        0.6801966723
 C         -5.2499811506       -3.5471743491        0.6411309944
 C         -2.8190319642       -2.9044064988        1.6305154410
 C         -3.2111660723       -0.5473637603        1.2149419815
 C         -2.4561539848        2.3224348350       -0.8322022979
 C         -1.5622423157        1.2860244997       -1.5381104584
 C         -0.2402434882        1.0831121900       -0.9025877688
 N          0.3383092065       -0.0971728843       -0.6981044180
 C          1.7187364033       -0.1661713562       -0.2808270240
 C          2.6662419216       -0.4366854023       -1.4667874233
 C          4.0957262453       -0.2913869038       -1.0250646175
 C          4.7345056185        0.9348551943       -1.1070819233
 C          6.0442980182        1.0844316770       -0.6777453369
 C          6.7410003034        0.0075047684       -0.1501488648
 O          8.0122398208        0.0360725265        0.2944810372
 C          8.7400476263        1.2397042022        0.2139775600
 C          6.0923796011       -1.2544109549       -0.0565350543
 O          6.8428560806       -2.2455880241        0.4662859353
 C          6.2983162977       -3.5388987329        0.5740341910
 C          4.7826947441       -1.3798244053       -0.4920157088
 C         -0.3261773630       -1.3409913001       -1.0056045572
 C         -4.0999635429        2.7648682027        1.0527529065
 C         -4.8758590963        2.3236021280        2.2251232969
 C         -4.1088157486        4.1980591880        0.6893941023
 H         -6.2596855901        0.8722537966       -1.7690637229
 H         -6.0715547656       -1.5137189712       -1.9306762970
 H         -4.7166843645       -2.3088439401       -2.7777511359
 H         -5.2423573459       -0.6766200977       -3.2740347375
 H         -5.2835547871       -3.9660084314        1.6524966944
 H         -6.2392589222       -3.5861975837        0.1853727144
 H         -4.5371508652       -4.1303820167        0.0471160528
 H         -1.8551324325       -2.8524403659        2.0887616139
 H         -2.5024885620       -0.3264195951        2.0005805795
 H         -3.2958147813        2.5287976280       -1.4959656031
 H         -1.8950679300        3.2468312105       -0.6855128437
 H         -2.1010911729        0.3470022769       -1.6424167099
 H         -1.3813035682        1.6749694657       -2.5495793518
 H         -0.9698433566        1.3861190002        1.0838721997
 H          0.3686892615        1.9559259831       -0.7172569465
 H          1.8299914846       -0.9589131115        0.4634123996
 H          2.0019365808        0.7806559929        0.1843632231
 H          2.4497515818        0.2853302138       -2.2562618773
 H          2.4894941643       -1.4394665434       -1.8569787676
 H          4.2173841083        1.7869374981       -1.5218869811
 H          6.5168822315        2.0490500971       -0.7637261532
 H          8.2791089420        2.0282343248        0.8168497905
 H          8.8374820922        1.5804835880       -0.8212039541
 H          9.7265467087        1.0115828121        0.6128695840
 H          7.0881055911       -4.1533030134        1.0019116654
 H          5.4287495433       -3.5545718187        1.2389921193
 H          6.0187234021       -3.9398196524       -0.4051946982
 H          4.2848729959       -2.3350604704       -0.4336611603
 H         -0.4474595703       -1.4673177337       -2.0837922443
 H         -1.3121377902       -1.3795823215       -0.5379534733
 H          0.2674163728       -2.1678964016       -0.6243427104
 H         -5.7389682695        1.8575702309       -0.3134685902
 H         -4.2456823347        2.4500593522        3.1152299895
 H         -5.1390552070        1.2687006625        2.1711534340
 H         -5.7722332371        2.9236613013        2.3610810860
 H         -3.2170349339        4.6848539409        1.1006044986
 H         -4.0920330518        4.3626353329       -0.3874522055
 H         -4.9789799233        4.6968515017        1.1070727863
 H         -1.1089169938        2.3253746010        3.2358491616
