72
 energy: -99.441216314679 gnorm: 0.004056104940 xtb: 6.6.1 (8d0f1dd)
N           -1.65399869830794        2.63082129731316        1.48584961571111
C           -1.58032396424320        1.25813495560486        0.89540093555968
C           -2.76586386781029        1.14384380572262       -0.09437516322975
C           -3.68170698595976       -0.04916461671623        0.11589557014507
C           -4.71344383274784       -0.22919610152199       -0.81606092427865
C           -5.59259801847547       -1.29224642310446       -0.73165896329642
O           -6.60698652870372       -1.53743320164900       -1.59284882046564
C           -6.78552294283081       -0.68674387410771       -2.69831231554822
C           -5.45725540427280       -2.22655449381029        0.32727848061458
O           -6.34678478590846       -3.24210455409462        0.32900768954767
C           -6.25412969551824       -4.21970412678097        1.33836162467827
C           -4.45184626820346       -2.03158571380539        1.25681849981114
C           -3.57645889287173       -0.95509840123884        1.15386632374995
C           -2.07283055886371        1.04171769841922       -1.47587781450300
C           -0.74349054424468        0.35856997080089       -1.18753520859003
C           -0.26635685894260        1.05099621297329        0.10178383807912
N            0.72165975495831        0.40824983820776        0.93823996462376
C            2.09876927294612        0.80907170864714        0.69876076131843
C            2.65968009392744        0.53758338585171       -0.71168827058954
C            4.16053598568855        0.59686393623734       -0.68018874810924
C            4.84150045835111        1.77219061795404       -0.93214997245981
C            6.22667632588417        1.82194904540630       -0.84458095511116
C            6.95312274487207        0.69475360541649       -0.49962031852756
O            8.30062032408932        0.63171672877806       -0.37611508895380
C            9.05495303086487        1.79948190967435       -0.59194639281208
C            6.26399409631368       -0.51783033885827       -0.24714468689109
O            7.04907607748695       -1.57581572678544        0.07344349900571
C            6.44290982311162       -2.82290165965097        0.30401361396604
C            4.88409390784940       -0.54464200226737       -0.33683177565021
C            0.57440018393104       -1.02704270977366        1.10612010126242
C           -3.52372329217979        2.49256391218119        0.06989539316079
C           -4.64171306060583        2.43849134169821        1.10883499770417
C           -2.41365072476612        3.44802220918349        0.51194348859314
H           -4.82466347463810        0.48625523765821       -1.61456628607834
H           -7.02244519478469        0.33634941601464       -2.38736978944841
H           -7.62943228562346       -1.09736661374106       -3.24890546396776
H           -5.90277770254319       -0.67732162698665       -3.34619644154934
H           -6.41634185849381       -3.78865839188237        2.33140486219583
H           -7.04395272955913       -4.93677665783420        1.12414905240210
H           -5.28593086055314       -4.72983770156541        1.31525977928126
H           -4.32761800387143       -2.71679729511055        2.07885525268661
H           -2.82273800386934       -0.87571321038672        1.92150066845183
H           -2.66593113902138        0.47183909209337       -2.18509019655788
H           -1.90064467996388        2.03346984371768       -1.89768981576626
H           -0.91061526927357       -0.70110048879777       -1.00465778495764
H           -0.03179939761660        0.46684238850919       -2.00201658827396
H           -1.61184968514366        0.53505536312392        1.70644401350163
H            0.13897916624017        2.03344866770789       -0.16922648751577
H            2.71150341582953        0.27496367421489        1.42726056909715
H            2.18824458490963        1.87808355950070        0.91877362686189
H            2.27089818533986        1.27573677092971       -1.41555606483279
H            2.34108812606522       -0.45267954366914       -1.04047411280768
H            4.29997745759080        2.66516650613710       -1.20753848741534
H            6.72989762689339        2.75231387453458       -1.05164009734600
H            8.77550279635431        2.59364368589599        0.10810605069024
H            8.94816553413469        2.16428420344868       -1.61856062313010
H           10.09087467801438        1.51452421088182       -0.41762606089366
H            7.25883892358251       -3.50988974474835        0.52061237714744
H            5.76312773611302       -2.78902733800161        1.16238240393947
H            5.89855298837935       -3.17574052744490       -0.57825013882839
H            4.34697130011285       -1.46099420204135       -0.14691880199927
H            0.95629908487866       -1.60727538338312        0.25936779681103
H           -0.47245159320476       -1.28541167848399        1.24776647201624
H            1.12569295024185       -1.32109236746272        1.99856307498363
H           -3.94927537234947        2.80766044064932       -0.88279657940350
H           -4.29785064629809        2.03650409012538        2.05959230137510
H           -5.44622966707440        1.79722137591602        0.76317888196944
H           -5.05032713079968        3.43300788169439        1.27171583921586
H           -0.71022752846572        2.98479338833546        1.65923544878720
H           -1.75664033442992        3.70225563059396       -0.32017214781580
H           -2.78748563816214        4.36560607012450        0.96559317965520
H           -2.17417791668070        2.60383868633818        2.36817618163046
