  72
        -99.35846432
 N         -1.7001695770        2.9117155339        2.5621033919
 C         -1.6886787221        2.1966047218        1.5389352350
 C         -2.8528652624        2.0137178879        0.6057901160
 C         -3.3020231486        0.5623956385        0.6332029885
 C         -4.1766743512        0.0698576982       -0.3371888600
 C         -4.6186602002       -1.2331220368       -0.3047504032
 O         -6.8836560139       -0.9297503687       -3.2876496869
 C         -7.9200262615       -0.6328571301       -3.8084823261
 C         -4.2088565998       -2.1009278094        0.7146868003
 O         -4.7042302610       -3.3547709621        0.6664133398
 C         -4.4144085871       -4.2484071071        1.7168934786
 C         -3.3359632869       -1.6193577869        1.6889116174
 C         -2.8974437142       -0.3059189884        1.6403965645
 C         -2.3246632207        2.3913355176       -0.8029970156
 C         -1.4191317091        1.3308589792       -1.4557027656
 C         -0.0889216836        1.2027706079       -0.8228731484
 N          0.5067252650        0.0609257429       -0.5083241828
 C          1.9029806209        0.0436477189       -0.1388321358
 C          2.7949451361       -0.3402983004       -1.3355937840
 C          4.2461302582       -0.2451682527       -0.9564982132
 C          4.9261514877        0.9565265053       -1.0741609001
 C          6.2605590746        1.0562522378       -0.7129389689
 C          6.9431052504       -0.0475902794       -0.2218349885
 O          8.2348710665       -0.0698166773        0.1530300315
 C          9.0056092027        1.1043311307        0.0383411724
 C          6.2525061040       -1.2849498884       -0.0935814179
 O          6.9919661687       -2.3049899477        0.3838336976
 C          6.4127361330       -3.5825243399        0.5016726615
 C          4.9169344417       -1.3588959737       -0.4573112237
 C         -0.1631547930       -1.2122558250       -0.6284099972
 C         -4.0819820281        2.9015262544        0.9629279646
 C         -4.6563556348        2.5404500732        2.3306741638
 C         -3.7762033814        4.3959170791        0.9104879490
 H         -4.5318194261        0.7105969091       -1.1291904370
 H         -5.2995177705       -1.6016381173       -1.0556549516
 H         -8.8635302815       -0.5371765340       -3.2472832300
 H         -8.0032569453       -0.4343971745       -4.8862224480
 H         -4.7389873852       -3.8486880434        2.6818219971
 H         -4.9741376879       -5.1546956201        1.4960185407
 H         -3.3463193746       -4.4851668066        1.7594749023
 H         -3.0013184370       -2.2511859473        2.4960424643
 H         -2.2435476800        0.0470520447        2.4244523387
 H         -3.1762073778        2.5530758217       -1.4628584477
 H         -1.7780840317        3.3326642321       -0.7305146081
 H         -1.9419310219        0.3772913224       -1.4939153372
 H         -1.2522043874        1.6609999848       -2.4893005894
 H         -0.7938568546        1.6514845943        1.1800427153
 H          0.5089610971        2.0983066240       -0.7327836952
 H          2.0525984558       -0.6712929453        0.6741374364
 H          2.1962472906        1.0332477249        0.2179526338
 H          2.5829325505        0.3435183342       -2.1596238068
 H          2.5559249385       -1.3542957116       -1.6580146529
 H          4.4211413463        1.8269983851       -1.4646984226
 H          6.7649393002        2.0018166350       -0.8253512257
 H          8.6020506323        1.9110208389        0.6576850146
 H          9.0720625863        1.4391298536       -1.0011518276
 H          9.9982632996        0.8375082781        0.3956831289
 H          7.2082696298       -4.2312644269        0.8627041571
 H          5.5895920314       -3.5850327527        1.2233172861
 H          6.0551966856       -3.9518178767       -0.4643597521
 H          4.3865459432       -2.2941794691       -0.3696657211
 H         -0.3394245397       -1.4713220490       -1.6745878996
 H         -1.1226065957       -1.1879530012       -0.1071336305
 H          0.4549005177       -1.9854134762       -0.1791569115
 H         -4.8473078398        2.6810513929        0.2095396886
 H         -3.9384433878        2.7740639998        3.1106010540
 H         -4.9086774286        1.4843298407        2.3849442718
 H         -5.5607477297        3.1160446458        2.5088846133
 H         -2.9712997356        4.6402009821        1.5966899479
 H         -3.5068770133        4.7205677375       -0.0907946579
 H         -4.6596383660        4.9511513394        1.2134653765
 H         -0.8454230205        2.9854125887        3.1046307012
