  25
        -42.15143523
 C          2.7710431992        0.8538001907        0.6299729843
 N          2.0932171551       -0.1250831446        0.0891542911
 C          2.7855472424       -1.1681081196       -0.5682486615
 N          4.0084768037       -1.3038372135       -0.3437432672
 C         -0.0580690342       -1.2700467534        0.1573057882
 C          0.6881263892       -0.1295788215        0.0694626711
 C          0.0119233022        1.1708676132       -0.0718709934
 O          0.6067852933        2.2188553965       -0.1937785700
 N         -1.3658092015        1.0977171226       -0.0749818416
 C         -2.1214255455        2.3379993095       -0.1638252506
 C         -2.1238628484       -0.0510940606        0.0456827532
 O         -3.3229877846       -0.0323950672        0.0702411318
 N         -1.3994106373       -1.2501682617        0.1370908336
 C         -2.1578034674       -2.4786995628        0.2676933066
 H          3.8441022122        0.8441713337        0.5140114090
 H          4.5289124550       -2.0355144793       -0.8105026713
 H          2.2833427649        1.6443694855        1.1723398200
 H          2.1484863230       -1.7582111713       -1.2331435460
 H         -1.4234037614        3.1559686154       -0.3283192799
 H         -2.8368879728        2.2751078302       -0.9834397607
 H         -2.6761066901        2.4965271456        0.7620976732
 H         -1.9291052940       -2.9693052126        1.2143345544
 H         -1.9315727998       -3.1563741842       -0.5557552447
 H         -3.2176761471       -2.2265456064        0.2434920702
 H          0.3974262327       -2.2446844042        0.2772552924
