72
 energy: 106.203894607877 xtb: 6.6.1 (8d0f1dd)
N           -1.42898782526370        2.78885798501444        2.18607020595505
C           -1.48085355557366        1.99503678201890        1.21533331000726
C           -2.63894032254152        1.93060562369354        0.24701788241887
C           -3.33611829686579        0.58723643382399        0.37432310822159
C           -4.28344916006264        0.19241360722255       -0.57395856025897
C           -4.94676153600055       -1.01584847974688       -0.47757512202667
O           -5.88950002623184       -1.47083169471060       -1.35201666088085
C           -6.30349965119271       -0.62407546132895       -2.39187874967980
C           -4.65211188236681       -1.88411692197245        0.59952402556257
O           -5.33467781954996       -3.05880657965055        0.60331403662059
C           -5.13449607932960       -3.94899516768294        1.67176835872871
C           -3.71051586413282       -1.49221214536545        1.53334316995151
C           -3.06403586259346       -0.26557318724918        1.42406164558535
C           -2.01520744900834        2.07027911333453       -1.16793571535943
C           -1.27242848820396        0.82894237107126       -1.69993335861699
C            0.03030638790469        0.55716535054734       -1.02333936971709
N            0.47147829365303       -0.59673790601792       -0.55857968401661
C            1.80328221250359       -0.70419078293975       -0.04537444524397
C            2.54785345544736       -1.50245863525332       -1.02083349572520
C            4.59519801376618        0.65514134084237       -0.57641581804129
C            5.40693120556769        1.73764273464222       -0.48606105912746
C            6.74614707372445        1.52088817612196       -0.14576006219262
C            7.27336462815333        0.24644434055523        0.08196005365176
O            8.56704860592271       -0.07852151102579        0.41571280698672
C            9.53405073415196        0.91098146008439        0.54179285837421
C            6.43227414906716       -0.86135805059708       -0.01230098567629
O            6.92928072489686       -2.11762720315032        0.23698114324896
C            6.01725354291161       -3.19143458094102        0.21094503578429
C            5.12790173766594       -0.59055226408511       -0.36093914360969
C           -0.34200608605480       -1.76511946811592       -0.55258295932855
C           -3.70923053285988        3.04549975484008        0.46595143732882
C           -4.40633902677955        2.89314972377311        1.82162592049033
C           -3.14994441376979        4.46038265386965        0.34537639640629
H           -4.51330611347694        0.85815753499248       -1.39103931016207
H           -6.71850779322124        0.31242203205880       -2.00546159879668
H           -7.08262179126671       -1.17393879190063       -2.91650128566920
H           -5.48898290806600       -0.39943012246257       -3.08822042912485
H           -5.39755891388135       -3.48957155126933        2.62892483739082
H           -5.79838302485910       -4.78987086540474        1.47890118517009
H           -4.10123414465796       -4.30822371739023        1.71571766983790
H           -3.47341025360779       -2.12887916093297        2.37046284162532
H           -2.35720809627397        0.02205657125660        2.18702688229814
H           -2.80533416189175        2.30656720519565       -1.87950432134323
H           -1.33968407141130        2.92646214780819       -1.16105060399960
H           -1.92484627978574       -0.03155183534997       -1.62519186274957
H           -1.08659865488236        1.02730827848657       -2.76466025730304
H           -0.68657151608558        1.30185094166739        0.93541276520116
H            0.74029703205202        1.39131641463189       -1.07872933346259
H            1.82571303322992       -1.24250581617679        0.89142634347901
H            2.15312163199369        0.30081114787791        0.16167541466101
H            2.52650717785646       -1.16238974112015       -2.04190104723009
H            2.83143979670474       -2.49784586602506       -0.75188584074290
H            5.04885847564289        2.72223962885199       -0.68261616870071
H            7.37181882741503        2.39635686811146       -0.04688900703289
H            9.28429854672943        1.63989762445552        1.31962239269205
H            9.72082956739916        1.42416221190008       -0.40583446007461
H           10.42780023252147        0.36845085188091        0.83374203017751
H            6.56435579890681       -4.09540949033992        0.47393860408880
H            5.18300106429152       -3.06483470573885        0.91646270757782
H            5.61842259963236       -3.32837261077746       -0.78885438778236
H            4.45490017117629       -1.39789304912966       -0.50084217456122
H           -0.55225994347581       -2.08959172471498       -1.57042419054492
H           -1.28734023898403       -1.57013579376784       -0.03174152659477
H            0.21351334609899       -2.53930695067100       -0.03530910040965
H           -4.47006229143304        2.91746605165618       -0.31614856346144
H           -3.68539704778024        3.02078537893345        2.62199094692305
H           -4.86248368722326        1.91074015905298        1.91886605755792
H           -5.18439068005030        3.64692827671418        1.92948367300230
H           -2.37718343471129        4.61311166452498        1.09084885160338
H           -2.74454828252584        4.64730586751069       -0.64356648071651
H           -3.94216940230826        5.18659152439410        0.52209101060006
H           -0.55293555822855        2.75008137594224        2.69657052594741
