72
 energy: 92.019970090865 xtb: 6.6.1 (8d0f1dd)
N           -1.39427198284470        2.79709774156497        2.15818740882101
C           -1.47336347329217        1.96526465644573        1.22450084217672
C           -2.61352728523939        1.90475644410122        0.24416282043712
C           -3.33077979615572        0.56994872917326        0.38397196770732
C           -4.27186674516764        0.18087786660938       -0.57283181306742
C           -4.95874093946946       -1.01380037852829       -0.46676742869253
O           -5.89172154817757       -1.46512626808363       -1.35032871199184
C           -6.27577322278559       -0.63368946759578       -2.41497166710787
C           -4.70879417895268       -1.86906243063410        0.63164245125249
O           -5.42203648948587       -3.02585683729833        0.64629820742322
C           -5.27643582030097       -3.89813609259318        1.73835162147025
C           -3.79029969352499       -1.47482203813786        1.58623555061851
C           -3.11097028289763       -0.26726707378609        1.46212207333724
C           -1.97510479097649        2.02356760873744       -1.16779557223169
C           -1.27011353573426        0.75785543305726       -1.69732318565632
C            0.01143949147984        0.48205596032965       -0.99838204618226
N            0.38691429631487       -0.66537546489299       -0.46298039892241
C            1.80252291764401       -0.87355007298177       -0.06291602421944
C            2.47301915363503       -1.80491547444596       -0.96256634614577
C            4.76073733986234        1.00051584320103       -0.54561992228550
C            5.65446462168040        2.01323172092265       -0.38671984822382
C            6.97091620709427        1.66427840182539       -0.06884273593380
C            7.32781014449957        0.33542858782175        0.08142233312384
O            8.58951350357500       -0.11601010197956        0.38948442107965
C            9.61321272457165        0.82163478178110        0.59604240463711
C            6.36667862918611       -0.69135901360559       -0.09116733929738
O            6.81939895132798       -1.97216105167258        0.07844492089170
C            5.88226305808526       -3.00736292853818       -0.06305425091920
C            5.07064641996018       -0.32186090900135       -0.42751621173641
C           -0.45130793787712       -1.84138785460118       -0.52670998024916
C           -3.66343398710547        3.03644232294660        0.44386986861570
C           -4.36443521777270        2.91651268905688        1.79551711630673
C           -3.07188355436052        4.43685947893299        0.29531195897866
H           -4.47131916269627        0.83025327223180       -1.40964751356672
H           -6.67953275507667        0.32069572978997       -2.06073044251159
H           -7.05685995077596       -1.17969350488100       -2.94160185701940
H           -5.44494138738176       -0.44338889745717       -3.10329857507489
H           -5.55568541785781       -3.41935633336110        2.68307514103185
H           -5.95595270618136       -4.72602250225688        1.54152218058185
H           -4.25365253060077       -4.28242629487224        1.81395491407382
H           -3.59424682734846       -2.09581351000202        2.44596177084881
H           -2.41864463761565        0.01817952713092        2.23869092527656
H           -2.75737549467360        2.28999590511884       -1.87991772168668
H           -1.25279906102031        2.84051264703619       -1.15119760846106
H           -1.94767397679835       -0.09292620128655       -1.62638480132744
H           -1.06482158232071        0.94292512090346       -2.76052072845336
H           -0.69379102572660        1.22134253488589        1.00130244290583
H            0.72583454140483        1.28822827974159       -0.94128931802770
H            1.76682615943644       -1.26706905961001        0.95942222202953
H            2.27068490418966        0.12593495093212       -0.04424856748886
H            2.47448909982883       -1.58719593779768       -2.02010176600730
H            2.61322819833254       -2.83198503955563       -0.65808876588624
H            5.36664280387241        3.04761278405365       -0.50887479764690
H            7.70079300746751        2.45249238678932        0.05233566776725
H            9.39912846284047        1.49447349462163        1.43565530253153
H            9.81199112813107        1.41921842255433       -0.30127215054089
H           10.49946655115463        0.22939003712849        0.82903155972379
H            6.41346930342873       -3.93331043678524        0.15619757215092
H            5.06076293601011       -2.89697923564438        0.65250414273671
H            5.47160820186950       -3.04411089332209       -1.07802791146155
H            4.25118766338431       -1.04643882609977       -0.61282279868811
H           -0.66980922366892       -2.15494454846364       -1.55119757585601
H           -1.39726864652654       -1.63774402676804       -0.01808622609594
H            0.06740906991098       -2.65340098363700       -0.02013835737459
H           -4.42033377324365        2.90367217092452       -0.33877734462989
H           -3.64791571879086        3.05129786960022        2.59885650189728
H           -4.83957204002285        1.94449998646772        1.90469346745684
H           -5.13028774529280        3.68429264997626        1.87784688791380
H           -2.30391115662244        4.60030925148616        1.04433649632571
H           -2.64755013555033        4.59521906051563       -0.69286833953859
H           -3.85831956833565        5.17315819943336        0.44328899804372
H           -0.55066431547939        2.74454135705629        2.72357339204704
