72
 energy: 93.211563791593 xtb: 6.6.1 (8d0f1dd)
N           -1.40050819366899        2.79661347803480        2.15597554712713
C           -1.46851456862683        1.97251497636418        1.21555647728796
C           -2.61221018877758        1.90137653302220        0.24000109541262
C           -3.33333330282758        0.56933079840709        0.38474815289790
C           -4.27480474903763        0.18128575807088       -0.57160146300423
C           -4.96308516017748       -1.01244868369086       -0.46329101677149
O           -5.89252623518035       -1.46288039537342       -1.34856387084383
C           -6.27271297111147       -0.63340612773897       -2.41685142042742
C           -4.72117833865439       -1.86460552487133        0.63835368868196
O           -5.43609971245294       -3.02421089915411        0.65055487779228
C           -5.27638789747679       -3.89854472443230        1.73716411985379
C           -3.79451652570956       -1.47402586077045        1.58805332410591
C           -3.11297414190639       -0.26882743810296        1.46117668704870
C           -1.97316671547250        2.01959238116287       -1.17157212479484
C           -1.27693058414204        0.75062164892562       -1.69946869241411
C            0.00802896906486        0.48831537469427       -1.01234513791756
N            0.37477206811989       -0.64914895752423       -0.44781564510532
C            1.79453407491763       -0.86277204613934       -0.04675063838156
C            2.44012291362767       -1.79072169305327       -0.96882253468689
C            4.74142112932197        0.94276130452813       -0.55906472586738
C            5.60546206380462        1.97992717286817       -0.38393777511668
C            6.92934509155031        1.65465505779190       -0.06770328062232
C            7.32321549961469        0.33049779502069        0.08196490094784
O            8.59706751821065       -0.09381903120872        0.38876672758398
C            9.62499692373947        0.83984057266278        0.60528661451216
C            6.38962505119148       -0.71667455769220       -0.09552393461147
O            6.84839481622430       -1.99994952443921        0.06907820328517
C            5.91682342439189       -3.04106783890307       -0.05407061790959
C            5.08373288800948       -0.36896423466621       -0.41705591092800
C           -0.44494106353587       -1.83670765717218       -0.52377817177011
C           -3.65883929835771        3.03610147452367        0.44148963176603
C           -4.36532303842499        2.91922806012063        1.79241978536928
C           -3.07210495749723        4.43973497208808        0.29339690529589
H           -4.47173913893206        0.82923233841437       -1.41001827447128
H           -6.67741406349317        0.32071007437822       -2.06344071067721
H           -7.05327698658461       -1.17727989053766       -2.94686892664547
H           -5.44224430724435       -0.44233860388472       -3.10472099277534
H           -5.55088667721713       -3.42398747199370        2.68475984468136
H           -5.95264600492521       -4.72898651780567        1.54153458637790
H           -4.25245385315261       -4.28015834277481        1.81137629755590
H           -3.59273093656256       -2.09570004865058        2.44542162279494
H           -2.41907375756017        0.01958412089416        2.23533771612378
H           -2.75611934575038        2.28797940829047       -1.88177201130373
H           -1.25319203805571        2.83945411950343       -1.15576051058035
H           -1.95733940734605       -0.09436501774961       -1.61975770770075
H           -1.06146041145438        0.92073228550798       -2.75934008999672
H           -0.68328729506501        1.23953104819761        0.99269704939590
H            0.71332464141156        1.30433926483585       -0.96497301339857
H            1.75096207785291       -1.29359702841762        0.95795403560240
H            2.24898970441339        0.14310034100727       -0.00051774235253
H            2.49396020681802       -1.51148814673609       -2.00969593625316
H            2.64832983152495       -2.80421549476353       -0.66879812460167
H            5.29307608650094        3.00670633202159       -0.50347684454177
H            7.63859720894368        2.46394363369646        0.06278862686127
H            9.42911748599449        1.50339582016306        1.45530977932328
H            9.83363120124799        1.44380321742538       -0.28376240886527
H           10.50706981573841        0.24531579590257        0.83295245002830
H            6.43962753159190       -3.97475397551625        0.13498747588818
H            5.10002596908060       -2.93339403604300        0.66454217903421
H            5.50278031177612       -3.08695456473978       -1.05935367922161
H            4.27924200647980       -1.10767657854504       -0.58160767764009
H           -0.66545811497232       -2.16859818050719       -1.54202584016352
H           -1.39091219813008       -1.64567350609804       -0.01100409639322
H            0.08889771110019       -2.63556201702292       -0.01457562753876
H           -4.41482462056580        2.90320241370285       -0.34119229877628
H           -3.64947660612922        3.05466761558792        2.59512772704493
H           -4.84270960068105        1.94918881699502        1.90258107875759
H           -5.13012286548090        3.68739485321454        1.87452500262866
H           -2.30337341454019        4.59735805426188        1.04137635446779
H           -2.65275205072223        4.59929685373513       -0.69506239866561
H           -3.85810455936084        5.17670057305238        0.44304966662697
H           -0.55324763362515        2.74582668095622        2.71770136447366
