72
 energy: 5.863673571736 xtb: 6.6.1 (8d0f1dd)
N           -1.50318958230545        2.83225984665208        2.24434630207376
C           -1.55349050635567        2.10736221638971        1.21388778850274
C           -2.71749634346685        2.02652449046187        0.25980139460464
C           -3.32953455075487        0.63871998308842        0.34552263746711
C           -4.30458684129001        0.23649372930755       -0.56898056753280
C           -4.87981380717407       -1.01840483810617       -0.51220869717159
O           -5.84341253030469       -1.48670318538709       -1.36045590432286
C           -6.36881910987516       -0.61188587735747       -2.32357334479229
C           -4.47494256382866       -1.92546808826264        0.48973913584531
O           -5.09653098701460       -3.14184119501763        0.46397137190254
C           -4.80297872391960       -4.05748426976306        1.48572678551321
C           -3.50797685813042       -1.52835204491098        1.39403704745766
C           -2.94278167871379       -0.26011533866931        1.31993295349139
C           -2.14157137106310        2.23499037426682       -1.16941917780894
C           -1.26046926300271        1.08522258468526       -1.70806448643651
C            0.01813394207158        0.96947104947068       -0.96183189054371
N            0.60339968374990       -0.21819932011467       -0.53894218103808
C            1.96809674268748       -0.22636086188025       -0.12045163791249
C            2.98031659986705       -0.68218372998313       -1.18261146883180
C            4.39342162718939       -0.17295161170936       -0.81310547209950
C            5.12306299357456        1.01108875781169       -0.90081943318192
C            6.45843813838674        1.04453739282935       -0.47176266431457
C            7.08338709246345       -0.06936703378495        0.06649134651168
O            8.37376583889818       -0.18187046272798        0.49800567534459
C            9.21290491915627        0.92888996118100        0.38375821944462
C            6.33960231429449       -1.24651921144275        0.20875123184526
O            6.97893311948076       -2.31985484947960        0.73689221706705
C            6.22587764594870       -3.49991749506195        0.88052349581524
C            5.04422304751947       -1.25070599477358       -0.22099873767756
C           -0.12453277822859       -1.44648450414619       -0.59994790714103
C           -3.83418974104038        3.06916849751808        0.54273157576847
C           -4.47987162576148        2.81379353829343        1.90560040534177
C           -3.32846912431016        4.50854348129151        0.48671093266253
H           -4.61535797855102        0.92457189000594       -1.33858060063210
H           -6.80905417336942        0.27819846848112       -1.86114159966363
H           -7.14924761488543       -1.17575199398644       -2.83309465383312
H           -5.61083893338351       -0.30259675808533       -3.05194117349741
H           -5.03362666155595       -3.64728922371706        2.47490322254670
H           -5.43844763118035       -4.92170685926624        1.29682725677525
H           -3.75301702614876       -4.36835557290472        1.46205920499951
H           -3.18863538575741       -2.19520521831196        2.17946227616084
H           -2.21079549990967        0.02769120639484        2.05739696707372
H           -2.96598832268747        2.38089010228881       -1.86457227570122
H           -1.55583694885630        3.15631813923220       -1.17680439082735
H           -1.80896996699672        0.14831691947129       -1.64524823345496
H           -1.08824895786372        1.30738770100827       -2.77765433629569
H           -0.69952285550391        1.55312368094488        0.78499382607917
H            0.70154740281127        1.81992623259544       -1.05637445198838
H            2.09709820297601       -0.85405352078748        0.77151531871383
H            2.22301981001995        0.79097297222108        0.14533732492996
H            2.65746375047090       -0.28387195907287       -2.15856695686046
H            2.94067303737497       -1.77984758656927       -1.26097090901844
H            4.71336506633249        1.91442508135540       -1.32223150430777
H            7.02900615078947        1.95789258608185       -0.57679289306299
H            8.84016798058494        1.77632722581029        0.96703137549811
H            9.35401743789497        1.23085437527777       -0.65809460876194
H           10.16816957278192        0.60953818209237        0.78989168055301
H            6.90135745880548       -4.23008224980629        1.31466247456231
H            5.36046642135404       -3.36928568844333        1.54349384709511
H            5.88668352958888       -3.87830166865439       -0.08560037261626
H            4.44407981698762       -2.12518538589467       -0.13427216444071
H           -0.30684530871956       -1.76449653992007       -1.63380983127253
H           -1.09248873050258       -1.34698673234478       -0.09545964708382
H            0.46255354627725       -2.20483793628336       -0.09191647326219
H           -4.60303855851876        2.94996240544021       -0.23240244837507
H           -3.73566380653792        2.93031551415494        2.68779890139249
H           -4.87996236120363        1.80402302380857        1.96131069482130
H           -5.28883975766861        3.52264875281737        2.07396907017898
H           -2.54161229408386        4.64534657798803        1.22110294994026
H           -2.95336460519879        4.76292016564594       -0.49905471596900
H           -4.14155282185442        5.19351008934805        0.72137620965576
H           -0.61497180070998        2.74851461316332        2.74080525071132
