72
 energy: 91.467134944281 xtb: 6.6.1 (8d0f1dd)
N           -1.39772738685518        2.79123479064008        2.16298517284000
C           -1.47244275355999        1.97185686453258        1.21814133421048
C           -2.61739276397853        1.90940368239317        0.24253396084284
C           -3.33085133554173        0.57321453367996        0.38271526238358
C           -4.27279475751506        0.18419396078246       -0.57329518391639
C           -4.95593021697140       -1.01234761943341       -0.46765755482443
O           -5.88930216844098       -1.46363932815110       -1.34939782710459
C           -6.28084418068529       -0.63050826876816       -2.41084953149349
C           -4.69838450741579       -1.87088506680054        0.62657423877736
O           -5.41092204288040       -3.02932193692339        0.63945146139757
C           -5.25218903649767       -3.90857414984201        1.72424127435364
C           -3.77510632781441       -1.47864445501653        1.57731600413466
C           -3.10150781891913       -0.26783737506271        1.45591754979461
C           -1.98050752444828        2.03256749080189       -1.16952187554483
C           -1.26659163952800        0.76817883603853       -1.68809976224664
C            0.01303979908793        0.49737133387989       -0.98525688387514
N            0.40520213387118       -0.66362602320583       -0.48628234950957
C            1.81086107033809       -0.86748364636653       -0.06457070810203
C            2.52198027204886       -1.79160658755497       -0.94844423445989
C            4.75441138474594        1.01877107693674       -0.55139859006727
C            5.65947277557398        2.03027845396901       -0.39388386884356
C            6.97338756890140        1.66796305849844       -0.07881203442962
C            7.31912507647529        0.33666856529173        0.07372633479726
O            8.57232460694615       -0.12202835352107        0.39839047660692
C            9.60192349920418        0.80958240602790        0.58954229211547
C            6.35079825019769       -0.67964940480496       -0.10355024336452
O            6.79382309453259       -1.95997560135172        0.07629565297836
C            5.86167140785013       -3.00361280721840       -0.02668199355090
C            5.05831800113206       -0.30173259374440       -0.43376849018472
C           -0.44159092146110       -1.83197562168443       -0.53724871586927
C           -3.66888247280939        3.03813874249125        0.44896605216586
C           -4.36852424875417        2.91051895356298        1.80164495092179
C           -3.08372408786992        4.44182198535207        0.30705686656700
H           -4.47712375937519        0.83633695492230       -1.40678331557776
H           -6.68751825466435        0.32015415494742       -2.05016784170499
H           -7.06179418456519       -1.17829727127874       -2.93598245344630
H           -5.45365031862545       -0.43442270924493       -3.10189865776332
H           -5.52835249723978       -3.43572637057472        2.67246189196447
H           -5.92922837187078       -4.73798175665309        1.52581291974226
H           -4.22711847286237       -4.28842559298744        1.79260594586545
H           -3.57210032236218       -2.10296875004538        2.43298649873600
H           -2.40671035827737        0.01669410457464        2.23095260523600
H           -2.76600326811526        2.28983045476774       -1.88164217113982
H           -1.26768895797215        2.85877911634796       -1.15652516617523
H           -1.94350563986625       -0.08243541787038       -1.62345901914221
H           -1.04440031042277        0.94458094548513       -2.74797018712805
H           -0.68638370590080        1.24058214960086        0.97456406046378
H            0.72745080570386        1.30561878193349       -0.93678940537678
H            1.76891097338032       -1.24669236326859        0.96135982488644
H            2.27868651111931        0.12658644489749       -0.05483585687335
H            2.50844396739563       -1.57855010012869       -2.00500093499035
H            2.56141303825987       -2.83882110341309       -0.69040140965215
H            5.40168712254010        3.07429549458756       -0.50469248189008
H            7.71146877543231        2.44661153176356        0.04882658368747
H            9.38583721414408        1.49568535711676        1.41698368585971
H            9.80153751729806        1.39096751459155       -0.31813899967147
H           10.48383045422401        0.21897685109314        0.83676736076240
H            6.41506458257217       -3.91275057486764        0.20709363327464
H            5.04026138860636       -2.88383101442813        0.68811461620416
H            5.44671113772115       -3.08037169531271       -1.03753564004586
H            4.25624775463453       -1.05734524275735       -0.60993887615613
H           -0.66019089439148       -2.14841032924897       -1.56031628246302
H           -1.38552358488494       -1.62333447125214       -0.02684430214504
H            0.06612855935967       -2.64742016706340       -0.02705765092149
H           -4.42652403131248        2.90661789637362       -0.33318534035880
H           -3.65005732414042        3.04497319080295        2.60317572207203
H           -4.83960940752848        1.93628392512389        1.90823883904932
H           -5.13711951615528        3.67476938131235        1.88993592347981
H           -2.31416945552452        4.60225243018755        1.05494514873819
H           -2.66269137143387        4.60653279429655       -0.68123827722631
H           -3.87152594642405        5.17555103597351        0.46128964613098
H           -0.55391340459515        2.74607936121554        2.72999665430620
