72
 energy: 84.676829078443 xtb: 6.6.1 (8d0f1dd)
N           -1.49246747566819        2.78854655520605        2.25593261762386
C           -1.54442206507737        2.04077240744959        1.24071639459561
C           -2.68025256960072        1.97143650727457        0.25341698482800
C           -3.34041061400417        0.61185516285545        0.36536755131190
C           -4.29219990922300        0.21322608202026       -0.57391614764558
C           -4.91892568694758       -1.01424386233621       -0.48879868335916
O           -5.86999033350556       -1.47305498296317       -1.35250141489747
C           -6.32977849053631       -0.61578948402875       -2.36327238782838
C           -4.58106221613794       -1.90085540003364        0.55574456048400
O           -5.24247201695267       -3.09945512268106        0.54444649687526
C           -4.99721221343748       -3.99567386570255        1.59574044798628
C           -3.62736092620424       -1.50832330502618        1.47705546036860
C           -3.01784693300905       -0.26230371918887        1.38170350295992
C           -2.07064077634279        2.13760571660394       -1.16809206410389
C           -1.27427289290362        0.93295801249309       -1.71579787878429
C            0.01754894603746        0.73041022217794       -0.98853824290999
N            0.53904146587058       -0.46569132125585       -0.53901360590975
C            1.87331690257699       -0.49313730853033       -0.04309670850274
C            2.83963716799227       -0.99506792395726       -1.05667711498766
C            4.43081740347709        0.22441441099012       -0.70432809773542
C            5.21520363928014        1.39180047495443       -0.66249963794817
C            6.57351445949566        1.31442342800213       -0.27665598633867
C            7.19928093085264        0.12232923305622        0.07741482489252
O            8.48523590999647       -0.10391474973002        0.46754575897415
C            9.40851896312131        0.93265999392455        0.47877704996059
C            6.43012207259484       -1.02779989836532        0.08101852729577
O            6.96270740413161       -2.21956359425925        0.45245827261008
C            6.09977959377742       -3.32944273958925        0.48901934482697
C            5.13171682387347       -0.88960749989769       -0.28385875499025
C           -0.23848679077564       -1.65170270485066       -0.57495812262810
C           -3.76897308230053        3.05874538852657        0.49325710552617
C           -4.44419711432523        2.86459438687495        1.85374656995104
C           -3.22743606955263        4.48155667964340        0.40106113261958
H           -4.55270059665508        0.88998503420570       -1.37176079927677
H           -6.75438593418932        0.30298207992137       -1.94417617576495
H           -7.11169614905178       -1.16826217350289       -2.88377560212992
H           -5.53594106030692       -0.35461989133509       -3.07214087048936
H           -5.24445015204872       -3.55414962021787        2.56712499315037
H           -5.64616195897300       -4.85114028703210        1.41222804452840
H           -3.95422789511962       -4.33013285231249        1.61186237142562
H           -3.35390916044166       -2.15999390541092        2.29244897463364
H           -2.30022282325196        0.02809826634955        2.13145936444882
H           -2.87302728757104        2.34667248310160       -1.87240417577183
H           -1.42624230259650        3.01994418582712       -1.15993769203248
H           -1.86816862123769        0.03041217164921       -1.63980721599284
H           -1.14103033578118        1.13663936802514       -2.80327384476257
H           -0.71208913451815        1.40037413758051        0.95130907424212
H            0.74920750871673        1.54617386918376       -1.15202807906323
H            1.97855825283113       -1.11414409702220        0.84691227884356
H            2.10221169438402        0.51683824065360        0.24741982246853
H            2.57860123044996       -0.77893708148599       -2.09196663295540
H            3.06723316763165       -2.05463456510159       -0.87788409412121
H            4.87718679951915        2.36621234270094       -0.94242848992631
H            7.17173946442686        2.21883764824127       -0.25388812109713
H            9.11024288125789        1.72419656273584        1.17219802333153
H            9.57219080682053        1.34482429773841       -0.51861503625846
H           10.33528297218836        0.48569896369691        0.82757693550005
H            6.69898659682656       -4.16696131399328        0.82734981845585
H            5.25422842189933       -3.19056967127412        1.17920208264756
H            5.72308992687513       -3.57056180083884       -0.50426449994594
H            4.56521092332390       -1.75183695269749       -0.27365340654247
H           -0.43577057245630       -1.96719768269568       -1.60570900947491
H           -1.19915191231476       -1.49420759190549       -0.06849242507110
H            0.32536990989936       -2.41587090534547       -0.05602970543941
H           -4.53072716930232        2.93336997491039       -0.28708469432155
H           -3.70297411667167        2.98083773563872        2.63757622712731
H           -4.87479138419298        1.86877700601069        1.93626846575607
H           -5.23356090523280        3.60196892644343        1.99172228275159
H           -2.44697103711259        4.61116161395023        1.14223866680528
H           -2.83226612567541        4.69313225699215       -0.58580630702214
H           -4.02402920099021        5.19736725094538        0.60312931123340
H           -0.60041289508388        2.73977472859967        2.75392022604036
