72
 energy: 1.346883401898 xtb: 6.6.1 (8d0f1dd)
N           -1.50282108410356        2.81938628291967        2.24290323450608
C           -1.55422999059428        2.11546636450950        1.19979227045677
C           -2.72414474469118        2.03377201741740        0.25691468627540
C           -3.32741674245987        0.64138540203194        0.34149098340754
C           -4.30598434828090        0.23947039236175       -0.56938243346604
C           -4.87399426888418       -1.01885447273579       -0.51574499423556
O           -5.83843603840140       -1.48752834401538       -1.36151140203883
C           -6.37431823083030       -0.61132491453008       -2.31791901515659
C           -4.45978537001797       -1.92875014399847        0.48019554292003
O           -5.07584871656419       -3.14713002832161        0.45272162079280
C           -4.77551751356342       -4.06601044510246        1.46988985580564
C           -3.49087046415431       -1.53105738692069        1.38192242647625
C           -2.93178649566245       -0.25982810793754        1.31072772529702
C           -2.15266223445212        2.24845414576370       -1.17228138635079
C           -1.25904010753729        1.10642399111773       -1.70273195475843
C            0.01941310978692        1.00222273162511       -0.95416775448538
N            0.61257159128837       -0.18299074098611       -0.54302909676240
C            1.97974884594491       -0.18944749999587       -0.13170812193970
C            2.98801242584432       -0.66446189565912       -1.20479279241794
C            4.39485986745718       -0.22601824385501       -0.82022154902003
C            5.11560682069364        0.95703024658033       -0.92957295221520
C            6.44549368694288        1.00549708539337       -0.49630757092018
C            7.06660586455511       -0.09723300645825        0.06561602654363
O            8.35539106448607       -0.18939862850069        0.50449818134901
C            9.18470013096409        0.92824728855786        0.37029977827365
C            6.32691889811893       -1.27799430624115        0.22446562366115
O            6.97676208311333       -2.33301804168949        0.77693571194617
C            6.24453497604790       -3.52295608861604        0.93556877657442
C            5.03101028195722       -1.30127625741402       -0.20972445664291
C           -0.10834757231252       -1.41729833527916       -0.60406579543254
C           -3.84226496028702        3.07107235603212        0.55061305835030
C           -4.48318520309242        2.80649005625858        1.91351623708379
C           -3.34128509100878        4.51240970344038        0.49898251398272
H           -4.62474722757032        0.92928429136926       -1.33377920408858
H           -6.81701812417828        0.27441837812534       -1.84963525123580
H           -7.15431427575446       -1.17745183159806       -2.82549463691163
H           -5.62207211401723       -0.29550263341249       -3.04933667851304
H           -5.00382019163571       -3.66050450061348        2.46150328314877
H           -5.40942769021367       -4.93104304562240        1.27962700628723
H           -3.72483560976058       -4.37406381730880        1.44061197472065
H           -3.16507096155815       -2.19987703410140        2.16298597592731
H           -2.19804085169632        0.02731594778864        2.04689490027888
H           -2.97948584424142        2.38280628710849       -1.86703088966630
H           -1.57591509482880        3.17499706100234       -1.18170142957370
H           -1.80375120651392        0.16635393182098       -1.64379882753098
H           -1.07237575367689        1.32720132654139       -2.76851623818815
H           -0.69670670199689        1.57548889278716        0.75454191091540
H            0.69177667067010        1.85736036877875       -1.03740960416559
H            2.10530193718109       -0.81435745101117        0.76243978156030
H            2.24068475171256        0.82927045308494        0.13245966118141
H            2.67608177625994       -0.21920887867574       -2.16311747716287
H            2.89211594423696       -1.75174446464932       -1.31015909330331
H            4.69462018111751        1.84630950090393       -1.36940270094330
H            7.01062253101133        1.91887088772735       -0.61742189633865
H            8.80268529301409        1.78330592648764        0.93635156344110
H            9.32334071034907        1.21219448571234       -0.67716094105928
H           10.14306176488372        0.62658363178675        0.78350753859724
H            6.93334190077895       -4.23223833376694        1.38362291145358
H            5.37636379534858       -3.39615782966196        1.59490276097818
H            5.91332838726909       -3.92195156203094       -0.02579319497882
H            4.43160427819000       -2.17940231313227       -0.11224177299360
H           -0.28892345784181       -1.73522261381729       -1.63806286751276
H           -1.07644215577194       -1.32648251803201       -0.09841146249682
H            0.48330904988104       -2.17444582543772       -0.09834248803841
H           -4.61271971027553        2.95257355746677       -0.22273204709784
H           -3.73945507000239        2.92388695210014        2.69599516604137
H           -4.87902216672254        1.79494681723351        1.96507115619516
H           -5.29529284629829        3.51061073538645        2.08545675487561
H           -2.55308140583873        4.65213452826640        1.23163645635950
H           -2.96981709096544        4.77273896848414       -0.48695513192943
H           -4.15689102142345        5.19242079812371        0.73811167359846
H           -0.61421281374013        2.74675319695555        2.73586533922233
