72
 energy: 98.774136758987 xtb: 6.6.1 (8d0f1dd)
N           -1.40788690605845        2.79613359398468        2.16822063377808
C           -1.46922576220503        1.97703449466573        1.21881236688444
C           -2.62445277181998        1.91531804522882        0.24802437034312
C           -3.33581506003943        0.57912975331255        0.38043474790413
C           -4.27727975767880        0.18587941689163       -0.57430598161324
C           -4.95513241388006       -1.01341805379077       -0.46934326118241
O           -5.89468049450718       -1.46461441473074       -1.34918591419218
C           -6.29203138837425       -0.62711276438163       -2.40277550187493
C           -4.68195961075121       -1.87471581639532        0.61807357830125
O           -5.37590734721153       -3.04560823228312        0.62453669751766
C           -5.19074220999240       -3.93005959709368        1.70055718290116
C           -3.74449784570667       -1.48521852232506        1.55693266186421
C           -3.08435447564292       -0.26627400318390        1.44180159090299
C           -1.99252258083084        2.04587573842201       -1.16533344607078
C           -1.27208252359154        0.79048712676685       -1.69806571242375
C            0.03598004625998        0.50707637092180       -1.05716508588149
N            0.42660527601606       -0.62874976723305       -0.52279727092249
C            1.78071783223658       -0.77324197348702       -0.04123359938258
C            2.50766231212654       -1.62398985582191       -0.99153490093062
C            4.64720965285447        0.77137897616901       -0.55135923294213
C            5.48506235260626        1.83656619591809       -0.44666179743700
C            6.81687718345349        1.58255485772779       -0.11223275033327
C            7.29878897402752        0.28696293073335        0.08091473125112
O            8.59141931026203       -0.06456212895742        0.40132384860998
C            9.58154354564143        0.89677381838936        0.56892899772550
C            6.42852607341308       -0.80176920396124       -0.05495730711351
O            6.90702114569305       -2.07385842090312        0.15753710527581
C            5.97891305502713       -3.13349136758784        0.09986621746150
C            5.11852584248703       -0.49989780207205       -0.38454644494851
C           -0.38444369395028       -1.80327248723457       -0.54183807357177
C           -3.68608866893317        3.04049340332513        0.45610896351822
C           -4.39068272371353        2.90554499305688        1.80937199426480
C           -3.11946817994160        4.45244041841299        0.32294936567414
H           -4.49601821666008        0.84617493895424       -1.39887116210317
H           -6.70298619217828        0.31700385929409       -2.03022592721509
H           -7.07055530551601       -1.17695898674213       -2.92906822321026
H           -5.46994641688707       -0.41654492710556       -3.09492856183982
H           -5.45832473985593       -3.46339839431963        2.65327314793463
H           -5.85933116524454       -4.76711275457582        1.50671530682845
H           -4.16061085799339       -4.29752100571723        1.75638192973837
H           -3.52084014682704       -2.11736632993167        2.40168303303242
H           -2.38150888776749        0.02000270739065        2.20876195115906
H           -2.77904478953647        2.29202444183543       -1.87904896847326
H           -1.30250941241103        2.89047202614336       -1.15963517386245
H           -1.93899685784677       -0.05999231934807       -1.62020883232835
H           -1.07611077388209        0.97670681408131       -2.76022117741426
H           -0.69264491399662        1.24568666982829        0.96020906798013
H            0.73343697685455        1.34118381082004       -1.04718721097329
H            1.76864023392539       -1.27745107156809        0.91174064426609
H            2.18955934897122        0.23217364811549        0.09859169709654
H            2.50193536185884       -1.31074506641010       -2.02142950385629
H            2.77180954686890       -2.62830182662279       -0.69778245792179
H            5.13831077973569        2.83873760656287       -0.59966628968726
H            7.46706102136397        2.44017130377638        0.01318514747543
H            9.34969187831665        1.59946904183168        1.37511404679066
H            9.78092781846577        1.44131871819285       -0.35703652398008
H           10.46585700577129        0.32624806168600        0.84116214196211
H            6.51544244327127       -4.04935643527837        0.33682427994995
H            5.15130233014945       -3.01315497681440        0.81191597950009
H            5.57586371517518       -3.23848855564620       -0.90403148568644
H            4.38342080486332       -1.27903982808889       -0.54636963581538
H           -0.59299967686202       -2.13207131947176       -1.56042332295506
H           -1.33046462600211       -1.60079191389774       -0.02421373368763
H            0.16425864754719       -2.58149104505637       -0.02214694968491
H           -4.44584318452751        2.91024649835798       -0.32653823336808
H           -3.67286583113658        3.03669025382101        2.61177170994273
H           -4.85523557095876        1.92761667847373        1.91185349298664
H           -5.16423243205476        3.66546175481114        1.90571963434034
H           -2.34861561111260        4.60828564307827        1.06937187389261
H           -2.70924884177947        4.62797460163744       -0.66636672593955
H           -3.90948675734347        5.18377961495265        0.48842245660687
H           -0.54513378675014        2.75953793773473        2.70729698622630
