72
 energy: 49.482667886099 xtb: 6.6.1 (8d0f1dd)
N           -1.50352669400789        2.82291245598514        2.26116695914099
C           -1.54575834048015        2.08567392420177        1.23359855153118
C           -2.68943183305050        1.99076619185441        0.25657566176797
C           -3.33742950040537        0.62212170801003        0.36244619984054
C           -4.29515821048079        0.22058173495825       -0.57149042825389
C           -4.90875261743989       -1.01515656686971       -0.49494434394658
O           -5.86747964175507       -1.47862610128963       -1.35426891981261
C           -6.34171199448409       -0.61449156810835       -2.35197832241807
C           -4.55069160672904       -1.90791191565438        0.53695713397984
O           -5.20023588301407       -3.11248964824994        0.52128336169647
C           -4.94142617982217       -4.01361394577086        1.56460191485605
C           -3.59318525880178       -1.51394402991305        1.45353180027589
C           -2.99635088523837       -0.26116648683711        1.36496658991334
C           -2.09011192460407        2.16191341499129       -1.16895889453134
C           -1.26571603619239        0.97192443718147       -1.72588877523178
C            0.02128418898697        0.80032426199461       -0.98488982038084
N            0.56742892320116       -0.40198829659893       -0.53294358795636
C            1.91182893636079       -0.41890309129734       -0.06362472636224
C            2.94211645484069       -0.84884927268109       -1.07533167067505
C            4.38945208717046        0.07818228162801       -0.74536027600576
C            5.16569826389142        1.27044723156165       -0.73380603486624
C            6.52627341346483        1.23709609073880       -0.33690245247911
C            7.17064916560737        0.07017600891580        0.07462582161001
O            8.46568893991933       -0.13190296156111        0.46937844576678
C            9.35638225777560        0.93384100530658        0.44959251323992
C            6.40892955968858       -1.08698111752725        0.12632934035598
O            6.97631545592645       -2.24946711082258        0.53443002144493
C            6.13642253982107       -3.37995385105559        0.60173364004478
C            5.11396623189587       -0.99899998272099       -0.26300885642034
C           -0.20205811961488       -1.59444880587682       -0.58121397940405
C           -3.79053261447727        3.06099025680223        0.50335407232888
C           -4.45634855333028        2.85061514781431        1.86688462373556
C           -3.25796447782814        4.48918991100164        0.42452190725079
H           -4.57002968392352        0.90048404178278       -1.36213410295707
H           -6.77018761221524        0.29665654345047       -1.92034392635607
H           -7.12334263295141       -1.16907842993779       -2.87024243703687
H           -5.55679209461124       -0.33944314571446       -3.06571085387794
H           -5.18398486940740       -3.58077036850928        2.54116540269098
H           -5.58629647200533       -4.87198561476183        1.38018910789119
H           -3.89618067987878       -4.34090023345812        1.56927875172774
H           -3.30641440837745       -2.17055948037520        2.26028636807068
H           -2.27425163858541        0.02853343420022        2.11055895421294
H           -2.89982523129853        2.35627700426511       -1.86975071686832
H           -1.46247418267647        3.05717170017238       -1.16428017279944
H           -1.84408096887262        0.05800638042973       -1.64515584078452
H           -1.14419220253260        1.18206962759274       -2.81260681905133
H           -0.71056128878056        1.45485208486425        0.90937089384556
H            0.74282366979465        1.62614381853092       -1.13560987723417
H            2.03736243052540       -1.04907396130129        0.82552262886666
H            2.14513930423344        0.59246589013355        0.22162921908834
H            2.62870447751516       -0.62395597403927       -2.09733459224287
H            3.09745816399497       -1.93079980997386       -0.98174406320872
H            4.81001669085611        2.23921733076624       -1.05598862144411
H            7.11884744916227        2.15044995145283       -0.35690146211045
H            9.03299932939052        1.74057898807319        1.11396799388759
H            9.51127915125174        1.31789269220068       -0.56166686060021
H           10.29191978659658        0.52364865653261        0.81648113925972
H            6.75215196183210       -4.19591596254758        0.96528234832603
H            5.28499265564728       -3.24005921701473        1.28377052399924
H            5.76800925555519       -3.65775727250154       -0.38506618858993
H            4.54756843712307       -1.87012851626038       -0.21836334017306
H           -0.39654814563899       -1.91014806402652       -1.61392655245442
H           -1.16661531336900       -1.45160733155725       -0.07762550201545
H            0.36503107722058       -2.35864246444766       -0.06492473322584
H           -4.55341893835624        2.93982174179152       -0.27717945307308
H           -3.71255982665716        2.96542630703477        2.64944070111780
H           -4.87814240519736        1.85063239685070        1.94328853121005
H           -5.25058998819952        3.58129514491907        2.01557911542883
H           -2.47589586121521        4.61836326111288        1.16458741945969
H           -2.86718099680121        4.71303543675632       -0.56152880643380
H           -4.05828165121871        5.19752073446163        0.63658533207155
H           -0.61854594033059        2.75001683530775        2.77591087865821
