72
 energy: 110.532407547484 xtb: 6.6.1 (8d0f1dd)
N           -1.47552325465828        2.77547721688230        2.24073280414775
C           -1.52834630123149        2.01870157641680        1.23733963449102
C           -2.66533559687164        1.95415036485542        0.25013839791411
C           -3.34074290657992        0.60185910236720        0.36936219025885
C           -4.29086215660625        0.20520593367066       -0.57317203958650
C           -4.92977137390040       -1.01529247570849       -0.48527078188060
O           -5.87699310818357       -1.47085458028307       -1.35015649392516
C           -6.31922363997707       -0.61866904413771       -2.37448614940464
C           -4.60821633602436       -1.89461068924888        0.57327336753418
O           -5.27454491699119       -3.08209729725134        0.56767636765273
C           -5.05104096593537       -3.97695820021830        1.62679741659226
C           -3.66032738348582       -1.50131914137864        1.49998351376177
C           -3.03738344704478       -0.26255418969247        1.39913177707489
C           -2.04980180465636        2.11033262375359       -1.16698938005098
C           -1.27748414868575        0.89139627887214       -1.70615267687693
C            0.01744543850789        0.65181822377716       -0.99937957139451
N            0.50565706084076       -0.51498147516207       -0.56773924726771
C            1.83858035233377       -0.57634816525832       -0.04125091865748
C            2.68751296311961       -1.22878745949273       -1.04537025449038
C            4.50027214053791        0.41854977069594       -0.65051051731474
C            5.29056787764367        1.54121113171232       -0.57997813144500
C            6.64158163547760        1.40512220305219       -0.21497724974574
C            7.23222091953512        0.17760803543747        0.07866829505268
O            8.52311256851205       -0.09454271337053        0.43714369031000
C            9.46105064478989        0.92466303355144        0.50283498220267
C            6.43681999924870       -0.95271930259438        0.05440827634794
O            6.95706780064350       -2.17653388530650        0.37007346409393
C            6.07394138187363       -3.26973109403738        0.37815830090742
C            5.13776456579764       -0.76614218459176       -0.31193716529737
C           -0.27913243401557       -1.70170950551622       -0.57025548352524
C           -3.74520860890920        3.05360255452400        0.48098326589943
C           -4.42794050292599        2.87449949955445        1.83977950833789
C           -3.19588039518693        4.47298873111840        0.37856892322094
H           -4.53765095222056        0.87773824889566       -1.37843577559584
H           -6.74008699596978        0.30664573516312       -1.96832345024913
H           -7.10056592340419       -1.16882803704874       -2.89747658065652
H           -5.51683928404450       -0.37228311000411       -3.07821816105581
H           -5.30598307793560       -3.52870658278811        2.59197271575639
H           -5.70647161750758       -4.82601939699627        1.43931916590326
H           -4.01247918130940       -4.32229652489244        1.65413250320496
H           -3.40147900796863       -2.14705280132273        2.32387327551126
H           -2.32411975075587        0.02663994831215        2.15405799292635
H           -2.84573055323396        2.32983644609075       -1.87654680331004
H           -1.39483797064558        2.98207971320499       -1.16368355878510
H           -1.89621584769440        0.00747421573272       -1.63479874870169
H           -1.10855806400868        1.10515548615402       -2.77618429142874
H           -0.70971387476464        1.35095915372085        0.98605254233037
H            0.72363657448306        1.49188296146133       -1.10616607617307
H            1.90698010771589       -1.16963981669217        0.86104202447604
H            2.09092040586945        0.42863094803430        0.23781088613387
H            2.56388106513429       -0.93571833377026       -2.07263362201197
H            2.97867041243702       -2.24445572847503       -0.80782948425048
H            4.94124599835786        2.51619043132559       -0.83234206402854
H            7.24523649056827        2.30028659750099       -0.16183537930733
H            9.18078151513873        1.69115347599243        1.22775097020650
H            9.63284582127854        1.37681301948040       -0.47470523808018
H           10.37506819897282        0.44067458832791        0.83283431677553
H            6.64793998755339       -4.13440702489380        0.69069727025373
H            5.23033300277582       -3.14014165006770        1.07078238000247
H            5.70087574547684       -3.46682176785555       -0.62128665773901
H            4.54955162610719       -1.61243118594305       -0.36387753148272
H           -0.48036229701303       -2.02274459442097       -1.59415168186786
H           -1.23187453588181       -1.52696465498327       -0.05459028412986
H            0.28527489403118       -2.46548417885290       -0.04855131202833
H           -4.50658499861343        2.92704159777947       -0.29876639449679
H           -3.69177700595675        2.99582839139263        2.62624541722865
H           -4.86973255681700        1.88487772541597        1.92953266432679
H           -5.21281811118715        3.61729468351830        1.96633117016189
H           -2.41987577292702        4.61525513308898        1.12210912007633
H           -2.79778557561442        4.67667840023810       -0.60958995319453
H           -3.99160268441213        5.19004409118641        0.57263237274508
H           -0.58513351910572        2.74050699161121        2.73316606399321
