72
 energy: 19.699048773629 xtb: 6.6.1 (8d0f1dd)
N           -1.50828899767509        2.84935672278812        2.25087373040116
C           -1.54882172181603        2.08816584525230        1.24103030405723
C           -2.70287106279274        2.01078923936147        0.26456682424382
C           -3.33320051192787        0.63239557704643        0.35318057770957
C           -4.30140951098990        0.23015186827780       -0.56881790063576
C           -4.89193199635294       -1.01744933352843       -0.50527215639733
O           -5.85417394513725       -1.48418521004290       -1.35800328150784
C           -6.35822706805234       -0.61280338636231       -2.33501345196603
C           -4.50560419453073       -1.91896773437560        0.50853897764697
O           -5.13826490580936       -3.13088805164303        0.48666807855701
C           -4.85819993282846       -4.04027363021188        1.51741859587588
C           -3.54230389892235       -1.52324809458659        1.41776643222561
C           -2.96463674867915       -0.26119975691274        1.33810505129703
C           -2.11927310503595        2.20622036968161       -1.16543128645521
C           -1.26228356060937        1.04127109487857       -1.71790271659022
C            0.01988877503633        0.90207176635982       -0.97833492686523
N            0.58893652721800       -0.29020459188204       -0.53506401994861
C            1.94806312329656       -0.30332528475140       -0.10004278385421
C            2.97605425508317       -0.74476510989866       -1.13686250867377
C            4.38995595402490       -0.07371959419785       -0.79262630593802
C            5.13646808160633        1.11521985764263       -0.83802052847629
C            6.48278915075189        1.12132992364945       -0.41914255646182
C            7.11784693996702       -0.01354227355663        0.06866816819000
O            8.41060214359456       -0.16377594041111        0.48511387069330
C            9.27027022253246        0.93097976478374        0.40979109240055
C            6.36782060437335       -1.18395082043320        0.17628984156980
O            6.98244560793181       -2.29328622357476        0.65571542707012
C            6.18961023958152       -3.45249961582893        0.76998848460946
C            5.07333323255543       -1.15075356085660       -0.23996553994879
C           -0.15457331183998       -1.50568407556999       -0.59231407005723
C           -3.81625579134826        3.06524408248790        0.52744890315308
C           -4.47128706505867        2.82872385756362        1.89022182313502
C           -3.30108941827575        4.50072236173753        0.46198408032948
H           -4.59713617132436        0.91506687083479       -1.34764226011012
H           -6.79348045832944        0.28589354895559       -1.88459900278286
H           -7.13932159478741       -1.17242345633873       -2.84836528867521
H           -5.58888567425465       -0.31697577306512       -3.05723556708805
H           -5.09341820785732       -3.62063451054935        2.50155934319877
H           -5.49695383764084       -4.90270584469989        1.33110392216165
H           -3.80982095325001       -4.35700541839234        1.50501514535508
H           -3.23595871462507       -2.18606317061020        2.21177391916342
H           -2.23660808460522        0.02802388336298        2.07862554707968
H           -2.93826346298571        2.37319798950415       -1.86302588726237
H           -1.51689671427367        3.11732707094579       -1.16915062658861
H           -1.82032163070177        0.11208333631442       -1.64679791018779
H           -1.11534256256399        1.26238835230450       -2.79524951044046
H           -0.70145723475171        1.51239341568206        0.84281063654722
H            0.72058245082018        1.74295733897471       -1.09260798291823
H            2.07812773911062       -0.93091112440563        0.79082938656039
H            2.18867567682950        0.71313037857680        0.16912404815967
H            2.62910429859113       -0.43253855677286       -2.14013085844943
H            3.02660947558473       -1.84979764530446       -1.14741080394710
H            4.74903747078836        2.04714109999720       -1.21787198894518
H            7.06238327873696        2.03530054144694       -0.48930505807186
H            8.91681036523578        1.76271169387026        1.02642086891160
H            9.41682895028442        1.26713009233356       -0.62028402148941
H           10.21862806510138        0.57604122109527        0.80103756114434
H            6.83870369486959       -4.22142361568083        1.17586532048701
H            5.32971180140363       -3.31501046856079        1.44020374141156
H            5.83610192758193       -3.78977540839203       -0.20494862538010
H            4.47682163734803       -2.01882630773006       -0.17205117467842
H           -0.34047744242943       -1.82249291017675       -1.62600098291495
H           -1.12196296670377       -1.39097396566590       -0.08894894226182
H            0.42537186546175       -2.26573560403289       -0.08091705192276
H           -4.58274558593758        2.94520760704432       -0.25061751604026
H           -3.72672274466911        2.94364993717474        2.67220747449225
H           -4.88004383938861        1.82277330770485        1.95419658451916
H           -5.27415226418939        3.54669433310357        2.05119735144413
H           -2.51628358363704        4.63333819165958        1.19884150191658
H           -2.91947442592208        4.74284750944001       -0.52381348137071
H           -4.10889849793475        5.19559617510904        0.68751863413647
H           -0.62351675288237        2.76659819852680        2.76417956824884
