72
 energy: -2.405086167026 xtb: 6.6.1 (8d0f1dd)
N           -1.50416558206659        2.80811276179207        2.24094544661583
C           -1.55396634909508        2.12563523439874        1.18508327373631
C           -2.73046250090154        2.04097719032435        0.25355418432540
C           -3.32455555277895        0.64389304183138        0.33707253423506
C           -4.30610834250461        0.24191888730507       -0.57063683575824
C           -4.86761483485719       -1.01942914296243       -0.51933952282054
O           -5.83334286561314       -1.48827393473928       -1.36224943927641
C           -6.37976447600948       -0.61079357690527       -2.31188236195451
C           -4.44425716279196       -1.93191064739506        0.47087485315090
O           -5.05465849376688       -3.15233310485647        0.44193814210072
C           -4.74740317368956       -4.07451173208048        1.45441553655635
C           -3.47354995551841       -1.53349134319853        1.37008514128776
C           -2.92047127956262       -0.25938774838215        1.30159316589826
C           -2.16395757217785        2.26232480283418       -1.17560106489457
C           -1.25884058952839        1.12740038306031       -1.69672325301667
C            0.01812803660591        1.03519293413926       -0.94395327322251
N            0.61961545263857       -0.14733216815866       -0.54700321890225
C            1.98799378791597       -0.14988737930105       -0.14083020269723
C            2.97950684423376       -0.63569501030756       -1.22729653664583
C            4.39056012886195       -0.27862041124741       -0.82707560704471
C            5.10684160802488        0.90097979550759       -0.95958498131136
C            6.43146722311736        0.96515326735367       -0.52362819877771
C            7.04911946056347       -0.12538372949855        0.06361728103173
O            8.33573076883135       -0.19598573838725        0.51102569858866
C            9.15583222127083        0.92787507801313        0.35807580097978
C            6.31248745121738       -1.30885955180852        0.23951644054004
O            6.97207241401648       -2.34557954907882        0.81665536207026
C            6.26170494938017       -3.54567687449665        0.99002817431881
C            5.01497314774658       -1.35069213775764       -0.19797449352098
C           -0.09220706520003       -1.38818293442856       -0.60838033134230
C           -3.85019320041143        3.07278534075713        0.55842545792411
C           -4.48686977137223        2.79851965778585        1.92097808386797
C           -3.35484145167999        4.51640110623453        0.51160674227335
H           -4.63340833929799        0.93357258715323       -1.32943765165103
H           -6.82485714810076        0.27055716034338       -1.83767261931739
H           -7.15937330504530       -1.17924306286471       -2.81734166112189
H           -5.63348150812309       -0.28852796886139       -3.04651656976983
H           -4.97332721279239       -3.67390817823193        2.44853877361762
H           -5.37983087433238       -4.94024473924075        1.26262650366278
H           -3.69606360221391       -4.37986763613830        1.41935788090462
H           -3.14120629328669       -2.20417900415377        2.14678871460540
H           -2.18470468749631        0.02682477987056        2.03632124549828
H           -2.99284180082583        2.38467079411524       -1.87025048140352
H           -1.59558877193907        3.19372012478725       -1.18673042603492
H           -1.80085460688633        0.18467190464451       -1.64191504920680
H           -1.05626778196090        1.34540516597536       -2.75823262420380
H           -0.69349312214974        1.59665626785815        0.72586284678382
H            0.68015954996128        1.89497354217732       -1.01575083116542
H            2.11163536359419       -0.77503223764539        0.75331135253261
H            2.25822431137784        0.86891317734939        0.12156174528641
H            2.69741244474949       -0.14495571461450       -2.16814630984418
H            2.83873337100345       -1.71351589541388       -1.36168653912465
H            4.67511049540122        1.77521786546541       -1.41892101378651
H            6.99000857122941        1.87903823010726       -0.66164017536152
H            8.76471181709221        1.79000215913073        0.90720580910958
H            9.29327709660004        1.19443174254165       -0.69432838686670
H           10.11645611616765        0.64269545400517        0.77885433575135
H            6.96329406149328       -4.23420226211121        1.45149987412117
H            5.39083142742440       -3.42323568760392        1.64584771623850
H            5.93860143436899       -3.96434607915051        0.03345256787735
H            4.42089968522010       -2.23444604886964       -0.08531277039530
H           -0.27124347747087       -1.70681111353749       -1.64230161076859
H           -1.06002966421847       -1.30538350232064       -0.10137047398470
H            0.50405181538962       -2.14372098351001       -0.10468761612478
H           -4.62206584135001        2.95464696232315       -0.21319413675116
H           -3.74402525318424        2.91753927147150        2.70399158011594
H           -4.87802690792708        1.78500555498137        1.96803033223754
H           -5.30253727967765        3.49746232438036        2.09604599054413
H           -2.56550572318293        4.65963209632618        1.24265673504894
H           -2.98710063033327        4.78331957262204       -0.47431859230676
H           -4.17365165568298        5.19055813391620        0.75543274179762
H           -0.61584169873857        2.75655889575159        2.73286001486544
