72
 energy: -5.858253999761 xtb: 6.6.1 (8d0f1dd)
N           -1.49679956830349        2.78279892389676        2.23948099036054
C           -1.55123731200856        2.14474975508898        1.15844334876926
C           -2.74215643751917        2.05494995314326        0.24753459997723
C           -3.31811749196048        0.64755274561997        0.32837389975196
C           -4.30430883367739        0.24539627070847       -0.57483360117679
C           -4.85488911482353       -1.02080644618982       -0.52701359742299
O           -5.82371300656773       -1.48912918386849       -1.36379073455320
C           -6.39090082774457       -0.61001373018647       -2.30049394565671
C           -4.41350608706967       -1.93831820989235        0.45205220648351
O           -5.01263146782312       -3.16231131503317        0.42054418233606
C           -4.69124119936703       -4.09140061730717        1.42312748587867
C           -3.43930102270434       -1.53904802504778        1.34651128099643
C           -2.89801025326640       -0.25947493606754        1.28369895620511
C           -2.18647922065182        2.28957998779315       -1.18222959040746
C           -1.26087238220197        1.16604735092039       -1.67918190631536
C            0.01022153913617        1.10041543585947       -0.91428170931300
N            0.63027948016694       -0.07757505780699       -0.55659381707912
C            1.99923577007396       -0.07061193719272       -0.15393552645656
C            2.95058542014094       -0.57493339611955       -1.26364948424043
C            4.37271356966556       -0.38312530557323       -0.83689942334725
C            5.08761115607126        0.78759139872509       -1.01646863575861
C            6.40268986801370        0.88365223799256       -0.57731834551038
C            7.01438715541860       -0.18101961673951        0.05946788757599
O            8.29554613112425       -0.20690900658480        0.52349929313818
C            9.09800579234995        0.92760071141843        0.33303308535109
C            6.28363861127817       -1.36970141339627        0.26689077230682
O            6.95952157684543       -2.36991955424860        0.89380741188871
C            6.29741197433386       -3.59097622738891        1.09888910297678
C            4.98193297529645       -1.44674001832467       -0.17517706166291
C           -0.06291111596814       -1.33037651930957       -0.61640104642504
C           -3.86495704731139        3.07619568350916        0.57492603593589
C           -4.49299635906710        2.78323592138390        1.93668911055239
C           -3.38159498516129        4.52468786568951        0.53661236847705
H           -4.64995134847264        0.94148657485078       -1.32119635394590
H           -6.84140591376386        0.26237403582281       -1.81510565067405
H           -7.16937685746757       -1.18370321856146       -2.80148370622297
H           -5.65699916408466       -0.27527255560134       -3.04189346574259
H           -4.91263324720704       -3.70120702981111        2.42229583026840
H           -5.32059328639497       -4.95843851362857        1.22781834076674
H           -3.63869689066665       -4.39150711117427        1.37647541553386
H           -3.09404753889550       -2.21297000780860        2.11470353894585
H           -2.15873208198814        0.02534858898311        2.01606690057641
H           -3.01701141761458        2.38477978688804       -1.88044363098653
H           -1.63476467936795        3.23068724371260       -1.19740122247076
H           -1.79963669532660        0.22006987455899       -1.63352984091204
H           -1.02252437262204        1.37251202976177       -2.73127868708586
H           -0.68732507610740        1.63689842614542        0.66751878664827
H            0.65706463286094        1.96314701212150       -0.97019358376814
H            2.11815895232130       -0.69942649462240        0.73666786610144
H            2.28934013970840        0.94732861583849        0.10880984438667
H            2.74222593242093       -0.00199029546761       -2.16911609968042
H            2.72713309153536       -1.62639736431522       -1.46185344300028
H            4.63965348956931        1.63261147526408       -1.51603613175190
H            6.94823765481354        1.79833103118168       -0.74844262171525
H            8.68920070886764        1.80346965998096        0.84753381618031
H            9.23233684078483        1.15801713600834       -0.72892329869349
H           10.06274514710718        0.67481025096123        0.76800311730933
H            7.02512803256548       -4.23505835023925        1.58712507444689
H            5.42157417097194       -3.47911982122406        1.74837890275979
H            5.99227538112280       -4.05016748557753        0.15318856669859
H            4.40620295322148       -2.34489170811207       -0.03178205189799
H           -0.23763254841666       -1.65031979585628       -1.65009693372755
H           -1.02954840138440       -1.26373962189556       -0.10622778756490
H            0.54362812670368       -2.08162925457811       -0.11683343765704
H           -4.64015594512727        2.95761835296231       -0.19251049050087
H           -3.75312243723184        2.90679870956624        2.72144622568991
H           -4.87526463038050        1.76605611859388        1.97512666906696
H           -5.31617011746903        3.47127973992201        2.11699231345122
H           -2.58919581837580        4.67722317374101        1.26315622686552
H           -3.02262514555667        4.80504856327878       -0.44984834586468
H           -4.20726643486486        5.18602336147231        0.78999834723432
H           -0.60551855836582        2.76914940183616        2.73239257304217
