72
 energy: -99.406616267459 gnorm: 0.001533044540 xtb: 6.6.1 (8d0f1dd)
N           -1.86723058406661        2.78030154193184        2.22115969037291
C           -1.82584951531352        2.11424431864382        1.16603439386444
C           -2.98278006397514        1.91032554045162        0.22800846077177
C           -3.46353414577082        0.46857364043843        0.31257178287612
C           -4.42123582452928        0.00401354658216       -0.59143320406673
C           -4.89858709195265       -1.29482304543749       -0.53683191510732
O           -5.83026829171237       -1.81939367519074       -1.35888158953439
C           -6.46641753769985       -0.99021117316800       -2.30274581729970
C           -4.39421231745008       -2.18531769310842        0.44956565815743
O           -4.90651866141712       -3.43175559202789        0.42138023560894
C           -4.51741984682202       -4.35501182319183        1.41128897044631
C           -3.44468091100916       -1.71806312171397        1.34364521608950
C           -2.98897085778941       -0.40685843882373        1.27681866007573
C           -2.43612758838501        2.19269399683994       -1.19540551282071
C           -1.48968724085559        1.10556199472267       -1.73860245773568
C           -0.16069194381494        1.09718088422243       -1.08626376043802
N            0.49085113790097        0.01597612394894       -0.67264274208578
C            1.86695938836749        0.11242199248178       -0.24551250583522
C            2.83773106678721       -0.33197133786518       -1.35626192544215
C            4.25881401991013       -0.12839558678428       -0.91063750365495
C            4.90172293525734        1.07869528203046       -1.13135163647523
C            6.20408850551353        1.27849417871928       -0.70087860112330
C            6.89018323822865        0.27346854676629       -0.03407841826086
O            8.15130027580822        0.35687640417644        0.42798216991185
C            8.88340390579806        1.54263741826589        0.21838639269022
C            6.23832174319246       -0.96946766128089        0.19772400131535
O            6.97783476647061       -1.89367484909038        0.84240214066767
C            6.43017963398133       -3.16738381338788        1.08513708547579
C            4.93490149240146       -1.14460554537823       -0.23958501945815
C           -0.10839956697352       -1.29639997937291       -0.69694693782175
C           -4.18594498349447        2.85091898758117        0.53525579551905
C           -4.81601504502672        2.52291377451807        1.88688809168551
C           -3.81731941087261        4.33097203265146        0.48196536376676
H           -4.81188824607719        0.67345211845838       -1.33963278015365
H           -6.97290420517734       -0.14873037379533       -1.82050256443837
H           -7.20508655717245       -1.62120531266053       -2.79321398398902
H           -5.76053318318838       -0.61469325362970       -3.05066650159054
H           -4.75733012015483       -3.99163837374720        2.41485149026824
H           -5.08891183382315       -5.25857177633538        1.20855887198704
H           -3.44816399388976       -4.58208564966698        1.35025082087108
H           -3.05734834554795       -2.36516246826073        2.11381692532447
H           -2.27362862290292       -0.07094057317585        2.01162530550200
H           -3.27698006166001        2.27970791037957       -1.88249794774933
H           -1.91357037816397        3.14987368236124       -1.19074553762106
H           -1.97593696913731        0.13359536259122       -1.67660122481254
H           -1.32924798765369        1.33281493090217       -2.80047589423011
H           -0.90567391537092        1.63208185957031        0.78037260825053
H            0.39542336276046        2.02354153237888       -1.08365282313322
H            2.01302128639609       -0.51106588818235        0.64067477037219
H            2.09011916371294        1.14645878784321        0.02551877495435
H            2.63963027136367        0.25638114511033       -2.25307952394223
H            2.66302675580308       -1.38341621823000       -1.58821311953880
H            4.39393035302685        1.87389063967554       -1.65585060387372
H            6.68070522386731        2.22501203372908       -0.89605050983428
H            8.41206587769603        2.39724351730613        0.71337150839722
H            9.00178084484392        1.75681975922371       -0.84793129013546
H            9.86124596688733        1.36396368760564        0.66131165391979
H            7.21123729352591       -3.72924395922466        1.59351248365860
H            5.54862066092494       -3.10913490430687        1.73164882756207
H            6.16803969382583       -3.67567972557834        0.15193803789584
H            4.43418643149878       -2.08579530547096       -0.07464549694580
H           -0.25726357569733       -1.64407054853384       -1.72147674133677
H           -1.07460653451445       -1.28402972442675       -0.18601461926476
H            0.54496898050347       -1.99767163816557       -0.18435299231180
H           -4.93599175616410        2.66236136512128       -0.24100626386839
H           -4.10410602430809        2.71088499372732        2.68402355392005
H           -5.13007279388185        1.48297912382793        1.93202245854280
H           -5.68807096292840        3.15175515736869        2.04515181857090
H           -3.04570999135527        4.55600134789893        1.21185616546548
H           -3.47589620441837        4.62932332266556       -0.50584516302216
H           -4.69437830880906        4.92539961654553        0.72376022892664
H           -1.01258667832678        2.87079645244990        2.76129955786776
