25
 energy: 43.116168457975 xtb: 6.6.1 (8d0f1dd)
C            3.35241204362284        1.50997797942135        0.06414756881774
N            2.55942868058801        0.32465037730877        0.04561376719061
C            3.01835072158900       -0.91140878186770        0.07352419857816
N            1.96059295596695       -1.76458706594764        0.05709535314442
C            0.77728605437217       -1.02450805212288        0.03514227682451
C            1.20408759673253        0.30391969119020        0.01556438728800
C            0.27884628467637        1.41679920144864       -0.01290829932230
O            0.63896343875502        2.59225326803142       -0.01606996550702
N           -1.00369637276514        0.97045357109058       -0.03261779784798
C           -2.05568641749751        1.97479306006403       -0.04489346833819
C           -1.43003907707967       -0.43174285508056       -0.00740914062651
O           -2.62920514912376       -0.58309410960477       -0.02523081238816
N           -0.49027174279176       -1.40498545407635        0.03909499089799
C           -2.99720050421084       -3.27025526439225       -0.16851849510199
H            3.83666508609725        1.59450327586152        1.03444072326646
H            4.09759186372114        1.44718391284005       -0.72315557304397
H            2.68316633826991        2.35764743298654       -0.08869883650277
H            4.07294345302388       -1.11621692153572        0.11270378438969
H           -1.57783920282169        2.95119369669603       -0.02428627383820
H           -2.66356632255796        1.87650984737371       -0.94313691992463
H           -2.70057075241401        1.85443907466895        0.82464941901730
H           -2.64052644910365       -3.71062037102176        0.72644039201981
H           -2.69974286442209       -3.66634314414409       -1.10367686984209
H           -3.75946136914236       -2.52789796697193       -0.12173700219503
H            1.93490672891811       -2.76526520929439        0.09582198269629
