25
 energy: -2.568655092685 xtb: 6.6.1 (8d0f1dd)
C            3.25278844472305        1.22051545936689        0.08547476143588
N            2.33891860756504        0.12148087750778        0.03352395465410
C            2.67642753381301       -1.21677084109796        0.04111908108879
N            1.50997824955226       -1.93868639916419        0.01870952818591
C            0.44110864844141       -1.11401715990049       -0.00240748538953
C            0.94619244365102        0.19250151885752        0.01153521746966
C            0.13960426540270        1.34803601106497       -0.00867033496821
O            0.50128017179626        2.52971488921946       -0.01812239108892
N           -1.24269647200722        0.99724354798541       -0.02885397419422
C           -2.18980278895928        2.10298250645724       -0.04717722403476
C           -1.77611912994437       -0.25195981911339       -0.04238078605893
O           -2.97987793009553       -0.42868586926617       -0.06095249228419
N           -0.91977644849633       -1.38351595664447       -0.03589555133986
C           -1.64548642799055       -2.66508224877235       -0.07356551583618
H            3.74236720733676        1.27376805296266        1.06392355135373
H            4.02281253967092        1.10809213951048       -0.68286483724769
H            2.68980376413790        2.13911377698897       -0.08322458766045
H            3.67071173515205       -1.60095985468059        0.05510758886049
H           -1.62404200119095        3.03427521534637       -0.02493615078005
H           -2.78936731971817        2.05339144763613       -0.95306578780218
H           -2.83684357851287        2.04006313793846        0.82420895167873
H           -1.40884134570935       -3.26694978795115        0.80836311747163
H           -1.39426667894357       -3.23342894406349       -0.97213495388288
H           -2.71236867172582       -2.43005296322509       -0.08084237691667
H            1.49069396099341       -2.93932295432175        0.01600942351859
