25
 energy: 43.516272279945 xtb: 6.6.1 (8d0f1dd)
C            3.33917248360768        1.49548037363326        0.06524686341011
N            2.54668125689291        0.31014238618423        0.04901870494839
C            2.99614419901812       -0.92562397020225        0.07438091424585
N            1.94169282221954       -1.77860180258389        0.05371794724168
C            0.75434153709847       -1.04300142395345        0.03125287700137
C            1.19257403511326        0.28402106519890        0.01465017787844
C            0.27486135658831        1.39908821450773       -0.01237275546061
O            0.63464140313894        2.57444004178885       -0.01558191686116
N           -1.00567370279447        0.95546652711817       -0.03152780399182
C           -2.05294783540768        1.96359694141673       -0.04423164112677
C           -1.44843501795649       -0.43575527258762       -0.00913953705212
O           -2.64951651537642       -0.56848441917430       -0.02572101179419
N           -0.51647123680829       -1.42063347621474        0.03348205610871
C           -2.93348337076040       -3.21610873506892       -0.16415465949622
H            3.82978349420505        1.58140971440743        1.03235942575154
H            4.07846082716192        1.44490564811773       -0.72695764965102
H            2.67025045834292        2.34298906527797       -0.08659021384080
H            4.04521942186227       -1.13650690088365        0.11395375375706
H           -1.55954187446369        2.93419639142199       -0.02374252623710
H           -2.65913727321366        1.86067388105672       -0.94304581951818
H           -2.70230885541795        1.84329545474832        0.82288279550211
H           -2.56317850434120       -3.64972118552041        0.72743139956545
H           -2.62256646060863       -3.61076929301244       -1.09385149321258
H           -3.70660282435647       -2.49292574326842       -0.11579397652852
H            1.97327849940327       -2.77599357734510        0.09973839678179
