25
 energy: 0.604870769533 xtb: 6.6.1 (8d0f1dd)
C            3.25386095338729        1.23772975552937        0.08549245501585
N            2.34884273794607        0.12905171125690        0.03256138862282
C            2.69986104014581       -1.20671252950168        0.04489038570265
N            1.53946223161955       -1.93909399104815        0.02403564230746
C            0.45347418084293       -1.13460675708109       -0.00138392129036
C            0.95393262927343        0.17869124557047        0.01018822449544
C            0.14821594657193        1.33301702686931       -0.01041774806604
O            0.50693451384856        2.51526541666410       -0.02199988344321
N           -1.23164354394169        0.98050545993021       -0.02814590376612
C           -2.17463850784246        2.09155860545811       -0.04607082017907
C           -1.76078297349595       -0.26962637128509       -0.03993533067848
O           -2.96642197331810       -0.42942565845051       -0.05349090684816
N           -0.91733042234177       -1.41474992119947       -0.03641028274621
C           -1.70432245164507       -2.67973279795417       -0.07839596435181
H            3.74778341511892        1.29294229468328        1.06226666675270
H            4.02373364479760        1.13314906148687       -0.68478098175921
H            2.68447232507349        2.15349665237530       -0.07961018599529
H            3.70033285100238       -1.57756334922851        0.05931623807417
H           -1.60287364723699        3.01913364400830       -0.02541499839693
H           -2.77235653496326        2.05135327213571       -0.95238473836510
H           -2.81823855561151        2.04053838990694        0.82750023122990
H           -1.48852844576245       -3.29499049100858        0.80009078978980
H           -1.47819113363116       -3.25642639799935       -0.97795714834280
H           -2.76161121218560       -2.39616561426024       -0.08234831523003
H            1.53200012611923       -2.93913415361889        0.02483263785007
