25
 energy: -5.971412435000 xtb: 6.6.1 (8d0f1dd)
C            3.24619758068534        1.18771423126334        0.08662815452327
N            2.31637690570803        0.10810348777858        0.03461966435745
C            2.62601234386631       -1.23288668121617        0.03447250795066
N            1.44952078827277       -1.93667000385962        0.00654636364963
C            0.41300088738308       -1.07441668891160       -0.00691877929155
C            0.92947273105457        0.21978305378412        0.01250028123077
C            0.12359134766852        1.37885115929621       -0.00660962263123
O            0.49577812107766        2.55775539622122       -0.00690017656160
N           -1.26094726268447        1.03404277571981       -0.03103304685149
C           -2.21236975517176        2.13372155531175       -0.04871399496743
C           -1.80558748663226       -0.21362037910384       -0.04605345546380
O           -3.00684461594146       -0.39933534345586       -0.06821806238186
N           -0.93259488791406       -1.32498152724573       -0.03698321640002
C           -1.53001054728880       -2.64688821398949       -0.06427673315101
H            3.72619872208214        1.23586112893215        1.06870864894221
H            4.01687956975044        1.05924568514156       -0.67666996725508
H            2.69678907406466        2.11191661330716       -0.08878293950847
H            3.60797236461553       -1.63906689339059        0.04627085111394
H           -1.65275741684043        3.06785822117331       -0.02508639401569
H           -2.81672300027464        2.07818244225819       -0.95322030228593
H           -2.86596434012621        2.06112252853129        0.81933265473141
H           -1.24757829637373       -3.21671351837646        0.82481950053640
H           -1.22677984523228       -3.19407672538864       -0.96063310770233
H           -2.61242507335554       -2.51596362393180       -0.07660396014742
H            1.40956350971960       -2.93885841064563       -0.00303381974184
