25
 energy: 4.855829519081 xtb: 6.6.1 (8d0f1dd)
C            3.25460190593717        1.25495276503820        0.08608034385971
N            2.35889864830270        0.13679015823835        0.03167643214661
C            2.72274261685818       -1.19598806524378        0.04866861859293
N            1.56861794468011       -1.93900406820346        0.02856200483695
C            0.46538267082487       -1.15497466553016       -0.00118230280920
C            0.96242938706926        0.16546042068487        0.00852041982436
C            0.15774382971068        1.31861731757376       -0.01250987876533
O            0.51542519934762        2.50119315610459       -0.02526075744999
N           -1.21927112049790        0.96468656205160       -0.02744880058559
C           -2.15853503562689        2.08098714775421       -0.04502575609948
C           -1.74599913044275       -0.28626919836221       -0.03786015774869
O           -2.95396766234630       -0.42319729473634       -0.04771011362983
N           -0.91722447483455       -1.44559902785942       -0.03791111673277
C           -1.76457524411066       -2.69567840946851       -0.08352539652910
H            3.75221877698148        1.31178622172367        1.06137572948168
H            4.02447181957587        1.15816090380656       -0.68579021896630
H            2.67854410491354        2.16761154642844       -0.07523812662081
H            3.72921684109435       -1.55290553303974        0.06267827357259
H           -1.58111113897816        3.00488348972397       -0.02634645734401
H           -2.75495140177702        2.04916172178909       -0.95142235055394
H           -2.79888640602134        2.04143611186204        0.83057533642728
H           -1.56539412471485       -3.31956526015276        0.79257162789026
H           -1.56251584135711       -3.27981526483661       -0.98391753163721
H           -2.81274260630193       -2.36910511172495       -0.08357547279161
H            1.57375152954044       -2.93848732007686        0.03253654359214
