25
 energy: 47.038908704446 xtb: 6.6.1 (8d0f1dd)
C            3.28955980949064        1.42868579510362        0.07437500845594
N            2.49318202481650        0.24118800376630        0.04528940565598
C            2.91906017795367       -1.01227759745640        0.07989439570528
N            1.84754609489446       -1.85276341879691        0.05701024788573
C            0.66948214972163       -1.11064955607094        0.02228519132143
C            1.13680041300014        0.21554046296000        0.00932927876140
C            0.25497665586713        1.34287160730642       -0.01385454718220
O            0.63111608064886        2.51327804612864       -0.01668062851341
N           -1.04317803235181        0.93621939272046       -0.02807833542444
C           -2.05202527394251        1.98888174475996       -0.04046952883334
C           -1.51269692569773       -0.40331776586085       -0.01259115274510
O           -2.71930817836008       -0.48418762292456       -0.01613911466545
N           -0.62548280404798       -1.44556360683195        0.01217424331806
C           -2.64033810378801       -3.04309477726531       -0.14143846594482
H            3.79172427194195        1.50766730372792        1.03725115587692
H            4.02857245982947        1.38835949180883       -0.71917225007966
H            2.63218282951167        2.28915888179859       -0.06374897255964
H            3.95686946328825       -1.26452225133839        0.09860327159905
H           -1.48377797062517        2.91855599480925       -0.02626983293973
H           -2.66647293457356        1.91429130112460       -0.93825708869676
H           -2.70271150442666        1.90726903414114        0.83130390456244
H           -2.28088864667502       -3.50375434041783        0.74274876265824
H           -2.33082814551234       -3.43940507183553       -1.06854482329097
H           -3.46064056399509       -2.37607070451873       -0.10288269802303
H            1.92341552957455       -2.85236525744453        0.08532740768492
