25
 energy: 40.882196994692 xtb: 6.6.1 (8d0f1dd)
C            3.40671616655834        1.54480558490129        0.07285239483943
N            2.60458111241747        0.35748994285197        0.05136649034156
C            3.04558718221422       -0.89085936599044        0.07246638523271
N            1.96920943488135       -1.71797125964544        0.05853037962133
C            0.80157195414636       -0.96470993055075        0.02871364839399
C            1.24315879612020        0.35691271012053        0.02760477732761
C            0.29711483342844        1.43232998580590       -0.00554063637824
O            0.60996368730219        2.61682761604750       -0.02086353523450
N           -0.99609847292766        0.97798262931824       -0.02008737794082
C           -2.03900238016629        1.99261677364110       -0.04309919411626
C           -1.41030605268845       -0.40298771631765       -0.01835190506905
O           -2.59768029268610       -0.62634901863837       -0.04101893139831
N           -0.44457163578739       -1.36912312098088        0.01111348989458
C           -3.14218479476456       -3.46662030087402       -0.15784389496744
H            3.89700836337664        1.64376503995922        1.04141839562145
H            4.15821846636746        1.50554691324208       -0.71389111945463
H            2.73697334234052        2.39157871080145       -0.08041192451579
H            4.10479189597348       -1.09925797124480        0.09421785052418
H           -1.53994517162625        2.96177776617357       -0.02452045546625
H           -2.64689117597223        1.90676324006805       -0.94453420770064
H           -2.69352507137699        1.89444085525142        0.82380297054413
H           -2.71718970778913       -3.82996428897405        0.74769542226125
H           -2.77575377792394       -3.83478714269680       -1.09087018477567
H           -3.83361822221810       -2.65392277644172       -0.13048764025263
H            1.89214462121102       -2.71484175682541        0.07596114954502
