25
 energy: 47.964303427392 xtb: 6.6.1 (8d0f1dd)
C            3.27790138990238        1.41619759117289        0.07716445505555
N            2.47844466932695        0.22747977888473        0.04354763308091
C            2.89890706720072       -1.03209369486208        0.07864334842760
N            1.81943169656177       -1.86610290432597        0.05617749379378
C            0.64589384525349       -1.12298397891549        0.01999295389594
C            1.12033260994987        0.20261958512463        0.00735003583488
C            0.25086655836386        1.33259215909579       -0.01484449595571
O            0.62384345423888        2.50345142780662       -0.01746541159522
N           -1.05602680583211        0.93591037937004       -0.02792142022534
C           -2.05281882468279        2.00150560967049       -0.04061082405491
C           -1.53408747266616       -0.39363962650824       -0.01392660036350
O           -2.74209566992848       -0.46488513326809       -0.01613059967015
N           -0.65533566184787       -1.45038056615025        0.00796887184751
C           -2.55779548449053       -3.00821058120025       -0.13467201028662
H            3.78626090960490        1.48661445675769        1.03990701443611
H            4.02481020400583        1.36616280778587       -0.71283857499573
H            2.62501672485752        2.28386897960954       -0.05752267490895
H            3.93582848036538       -1.29843850948113        0.09405914587214
H           -1.46810811027934        2.92058798753229       -0.02703686922651
H           -2.66904307321327        1.93491133853387       -0.93783964433525
H           -2.70434720583094        1.92904458080461        0.83135529990268
H           -2.20562110261775       -3.48830800572401        0.74649778188893
H           -2.24915664377336       -3.41716420557198       -1.05892851096759
H           -3.38991655832308       -2.35231768855181       -0.10059663743773
H            1.88727041109116       -2.86609461581742        0.08051085526378
