25
 energy: 45.212886724127 xtb: 6.6.1 (8d0f1dd)
C            3.40337670323970        1.54180429597587        0.07471425779460
N            2.60864055616461        0.35124859186040        0.05131482596537
C            3.07505325838013       -0.88757774938365        0.07065293015463
N            2.01720509260163       -1.72327761284375        0.05880725231011
C            0.79934118752376       -0.97579615683874        0.03080569543059
C            1.24276898241257        0.33904954998637        0.02865945213001
C            0.29517089739196        1.41867398240395       -0.00544618153783
O            0.61684620018457        2.60026037721101       -0.02179510433255
N           -1.00625173735911        0.98306245085342       -0.01971486834315
C           -2.04177727003891        2.00536789187630       -0.04273577457574
C           -1.42836051100537       -0.38375619190675       -0.01833125007581
O           -2.61776997143648       -0.60295851539508       -0.04080501434923
N           -0.46173876311822       -1.35678874008209        0.00861320407963
C           -3.14813263723548       -3.49759671483303       -0.15181598969168
H            3.89093341106594        1.64177241711144        1.04436106968623
H            4.15586165578457        1.50258326490723       -0.71086587790444
H            2.72811908994911        2.38263627917137       -0.08268995263606
H            4.14134409610528       -1.06987091104853        0.09215005757484
H           -1.54293091873990        2.97357807623431       -0.02526661045194
H           -2.64872057499860        1.91452730392467       -0.94359132916500
H           -2.69467207651849        1.90466610530980        0.82423599122201
H           -2.72119924901435       -3.86501896525985        0.75613412644329
H           -2.78530409375499       -3.85804733819592       -1.08990506483938
H           -3.81421595173387       -2.66481706416036       -0.12384321942950
H            1.84862692912256       -2.68469583813445        0.06339128673557
