25
 energy: 41.876978981290 xtb: 6.6.1 (8d0f1dd)
C            3.36445756698284        1.51920125495480        0.06547838508288
N            2.57363367393051        0.32989687193121        0.04507208831345
C            3.02833336684539       -0.91432262070644        0.07269645044609
N            1.95816254756398       -1.75757950144689        0.06091488248919
C            0.78745325774710       -1.00859453686012        0.04031465645296
C            1.21553079141837        0.31821953514920        0.01680798414526
C            0.28174656803593        1.42401176960760       -0.01325844977425
O            0.63715398774983        2.60072462883060       -0.01724088143619
N           -1.00740390984267        0.97717900388713       -0.03198454940295
C           -2.05763697729119        1.98474618473085       -0.04461047065007
C           -1.41918441843007       -0.42906679155450       -0.00730736924041
O           -2.61450536541609       -0.60083039335042       -0.02513685793679
N           -0.47295023070608       -1.39581481458758        0.04165513897449
C           -3.04617023929192       -3.33002292903773       -0.17329296594528
H            3.84930607672226        1.60920999252037        1.03523472595616
H            4.10807147279085        1.46790298503605       -0.72411802871066
H            2.69384710814122        2.36564561924919       -0.08654486298866
H            4.08630206363524       -1.12655491764667        0.11199376592483
H           -1.56614275522511        2.95543961508443       -0.02613157071500
H           -2.66474660311406        1.88555528795973       -0.94287862138549
H           -2.70267679754633        1.87293862375377        0.82595716690659
H           -2.62880805619561       -3.72732635306329        0.72925190055303
H           -2.67134378777420       -3.69938041829399       -1.10786186250562
H           -3.81902547300649       -2.58976180677668       -0.13109430539097
H            1.92278238622106       -2.75899658391404        0.09421309796996
