25
 energy: -42.503998529451 xtb: 6.6.1 (8d0f1dd)
C            3.29276805775967        1.39660590487953        0.09241654156224
N            2.45793279607701        0.22154454448951        0.05809662862093
C            2.82874653080699       -1.07542550477089        0.05832482850737
N            1.72265884939819       -1.88475351821778        0.02214593856921
C            0.59293063802392       -1.10135232634301       -0.00177381805937
C            1.08411693922513        0.22228854681503        0.02882914079310
C            0.21545030656227        1.35035857216340        0.00523069244904
O            0.56633663211632        2.52711542154814        0.01697145206831
N           -1.10354271316118        0.95399684619603       -0.03536080060926
C           -2.10506722498946        2.01906123308218       -0.05197675149978
C           -1.58732140664404       -0.36324476225457       -0.04589235622142
O           -2.80105031667459       -0.42712271843872       -0.06473645636801
N           -0.70825976516900       -1.42752853872619       -0.03819782747269
C           -2.37755155068704       -2.96680261892548       -0.08651705178872
H            3.83812337094560        1.44819499087891        1.03456730625544
H            4.00636753923807        1.40857268835747       -0.72754307495428
H            2.68265182754230        2.29685310368199       -0.00492412223945
H            3.83756891548414       -1.42621645331736        0.05961999537687
H           -1.53737466398224        2.94722896677473       -0.03264818027013
H           -2.71518419676294        1.95264262948080       -0.95201397049840
H           -2.75347662215595        1.93915959875880        0.81919792718612
H           -2.12896500667223       -3.41939338971129        0.82987545708804
H           -2.09090922209207       -3.39278819867168       -1.00427407073678
H           -3.10876857662158       -2.20642265768834       -0.08708325289643
H            1.77169179336324       -2.89449697606890        0.02052832771356
