  25
        -42.16441489
 C          2.8177405404        1.5458429071        0.2787746069
 N          1.9749248211        0.3483084707        0.1756762328
 C          2.3978357051       -0.9034886553        0.0122223122
 N          1.3385350938       -1.7380692609       -0.0992129823
 C          0.2059343924       -0.9896316439       -0.0111017570
 C          0.5955606237        0.3428533122        0.1546165982
 C         -0.3435749542        1.3837641416        0.2722754759
 O          3.1415387697        2.0281888215       -0.9675729297
 N         -1.6062690984        0.9637985091        0.2178553387
 C         -2.6682700456        1.9479329969        0.3306260724
 C         -2.0704798773       -0.3531989277        0.0712231387
 O         -3.2382482662       -0.6225012541        0.0519189290
 N         -1.0853859522       -1.3524012472       -0.0553163781
 C         -1.5008278565       -2.7337390121       -0.2052742132
 H          2.2676839451        2.2625230458        0.8991584030
 H          3.7508570542        1.2499759095        0.7699078533
 H          2.4688824662        2.6289021016       -1.3119470050
 H          3.4245498482       -1.2071661487       -0.0297528535
 H         -2.2164304878        2.9281092773        0.4492705239
 H         -3.2935044134        1.9229857686       -0.5621212929
 H         -3.3000602433        1.7146004167        1.1878634219
 H         -1.1300045441       -3.3346987635        0.6255399719
 H         -1.1423414320       -3.1391576452       -1.1516740527
 H         -2.5901023405       -2.7513129382       -0.1993801973
 H          1.4002438767       -2.7388320326       -0.2281867437
