72
 energy: -99.353791077509 gnorm: 0.007573318665 xtb: 6.6.1 (8d0f1dd)
N           -1.59273395532178        3.10086155827282        1.45490010794158
C           -1.66632042667622        2.11901474134584        0.68369795828273
C           -2.87827729681034        1.77556228565035       -0.13888007505712
C           -3.40298370324470        0.40913031181807        0.27054081029502
C           -4.36780724909191       -0.22628611747733       -0.51359353827311
C           -4.88495157101690       -1.46279627846213       -0.16605679737258
O           -5.81977989945361       -2.14055185055648       -0.86479241899338
C           -6.40917842779818       -1.53647272779603       -1.99191917157282
C           -4.42126067592652       -2.10956863444479        1.01120483549241
O           -4.96760104171447       -3.31649711939890        1.26336150486311
C           -4.60953682622843       -3.99715634989078        2.44300846969805
C           -3.47373764013748       -1.46830570742432        1.79274590349167
C           -2.97458883067606       -0.22387856526853        1.42754732046677
C           -2.40143538915985        1.74691152625305       -1.61643878549484
C           -1.57229656132197        0.51180180067613       -2.02067367887615
C           -0.18212112922932        0.55017231991278       -1.49781403322749
N            0.44607597364351       -0.43315818065544       -0.85545399628607
C            1.72281727033055       -0.37603902775633       -0.47046381016617
C            2.60520913930268        0.78705481835924       -0.77351256484883
C            4.03138195576983        0.57303285511532       -0.35917611423467
C            4.71246596511387        1.70021340883080        0.33650376145811
C            6.12284311682686        1.41542249602832        0.71872994690503
C            6.74555903144354        0.24447446025280        0.42990580106516
O            8.01515239734204       -0.08264222791940        0.74650798924848
C            8.81264361334214        0.86923298579830        1.41424413565392
C            6.03356053321654       -0.79268064610516       -0.27525433834558
O            6.74122616263293       -1.89923993335906       -0.51774955467771
C            6.14920353782417       -2.98549956036156       -1.19269837861761
C            4.69418367539222       -0.58608281292746       -0.64138572586408
C           -0.29633032793999       -1.63922894739835       -0.52397449035644
C           -4.03994987403245        2.80146933845665        0.01882341987029
C           -4.57233084690692        2.82708676673952        1.44979972474152
C           -3.66037752257100        4.21475993271382       -0.41476206223047
H           -4.72686593892636        0.26072856801341       -1.40482183803544
H           -6.89882285738489       -0.59329374735061       -1.73127130787919
H           -7.15671887089473       -2.24429131961750       -2.34460248854493
H           -5.67571122590031       -1.36196960905131       -2.78592589404587
H           -4.86149524310232       -3.41478188197797        3.33423249816180
H           -5.19088394904715       -4.91705925920077        2.43702325942301
H           -3.54280782655263       -4.24323092317596        2.45664751148396
H           -3.12049074362019       -1.92393193874706        2.70352177051982
H           -2.26146396311361        0.25801975120036        2.07877121928939
H           -3.27899404808513        1.78860374215675       -2.26116749113233
H           -1.81148510568138        2.64377147292579       -1.80904165500216
H           -2.10067158983189       -0.39146682896684       -1.72469373078213
H           -1.52154171081393        0.52114750649301       -3.11716594367002
H           -0.82606275485116        1.43137019084333        0.49404827403732
H            0.39319860986935        1.42713796912316       -1.73950042497912
H            2.11086446368464       -1.19327242648614        0.10651860580219
H            4.14520252995011        1.99568075565842        1.22302755861525
H            2.22363574973395        1.69461663526533       -0.28684193632587
H            2.57981031699030        0.98537239361525       -1.85626675238567
H            4.69509414121679        2.58683588638904       -0.31994565319167
H            6.63460877518823        2.20305111531558        1.24569949707888
H            8.40382609725625        1.11075224443750        2.39998929663194
H            8.91584913554767        1.78580229106017        0.82598162312484
H            9.78837370804402        0.40261377597332        1.53207455213807
H            6.92219982325609       -3.74925069594980       -1.25180004227460
H            5.29236603219951       -3.38119856673727       -0.63901018852123
H            5.83745817707162       -2.70673337541437       -2.20357472004496
H            4.17288752480175       -1.36978286495243       -1.17013000615971
H           -0.60768804470391       -2.15050404386380       -1.43446146189153
H           -1.18062523792833       -1.39062755324173        0.06577305340376
H            0.33183399135687       -2.31184340155819        0.05418028791333
H           -4.84947300148205        2.45323689928286       -0.63326956562445
H           -3.80577604401011        3.19272821799230        2.12561144045317
H           -4.88474883707594        1.83634604500707        1.77124628799618
H           -5.43019673739202        3.49182635012115        1.50796235235091
H           -2.83057009147614        4.58045420404806        0.18183235508808
H           -3.39366375672817        4.25876073684164       -1.46727154122042
H           -4.50934718952932        4.87524386510773       -0.25846674288757
H           -0.71331188794469        3.25316042297833        1.93943062867070
