25
 energy: 24.469899257671 xtb: 6.6.1 (8d0f1dd)
C            3.21283107020837        1.14940252584759        0.12662719707423
N            2.27433299939290        0.07561847284481        0.04448595476784
C            2.59625624921489       -1.28083768809428        0.04213577598693
N            1.40025633356192       -1.96055781316565       -0.01600416669618
C            0.38547789358080       -1.05987074332368       -0.01875813429332
C            0.87107672153469        0.26768688909931        0.03094031754201
C            0.02215450998800        1.48396570579571        0.00407212735756
O            0.15155534134266        2.72896173234855        0.05120959368398
N           -1.33389350906165        1.07151614216191       -0.10293491999681
C           -2.17982403024144        2.33324828579703       -0.12837699632293
C           -1.84979942534172       -0.22540575770440       -0.07099356311978
O           -3.04029227454778       -0.46893585907454       -0.05575006708707
N           -0.94887052299857       -1.33274990244714       -0.05085046446407
C           -1.43969311345905       -2.70022834295243       -0.09024554118039
H            3.61284530492095        1.26117182569763        1.14165353937604
H            4.04576777981647        0.98399833323619       -0.56490685831432
H            2.67276548688485        2.05081343690577       -0.15752699080735
H            3.57613796656327       -1.70859812431825        0.03637390213474
H           -1.74935252430814        3.41139175042619       -0.50473296926550
H           -3.11740598351028        1.95539058552021       -0.55163901176795
H           -2.41488584200616        2.56373743480882        0.91216125173482
H           -1.11283692352713       -3.27254612670853        0.78417804731086
H           -1.10910827880169       -3.22040868420843       -0.99581779116857
H           -2.52757184880129       -2.65946825655596       -0.08816603929887
H            1.34671081870443       -2.97082215054363       -0.05194162137920
