25
 energy: 135.442779329413 xtb: 6.6.1 (8d0f1dd)
C            3.16786397777956        1.07178030470298        0.14182738275583
N            2.27267531901467       -0.04144929467583        0.05898499273128
C            2.60335027562232       -1.34278871516240        0.02805707398792
N            1.47496132450036       -2.08632738405734       -0.02698328169296
C            0.41286856425009       -1.24746358014417       -0.01772778229393
C            0.88749774003995        0.07969802598427        0.04298976088628
C            0.11358512399160        1.24451276849742        0.07851025899245
O           -0.98843440761509        4.12470487570779       -0.06724589228493
N           -1.26045069738833        0.85943406831930        0.02906585292737
C           -2.19939710618887        1.79239460003027        0.02686196115349
C           -1.79585826858455       -0.47583041728206       -0.02522370627921
O           -2.99166638878055       -0.67429537480219       -0.04564736618382
N           -0.90999067691828       -1.53135858884738       -0.04667678353356
C           -1.39704054121641       -2.89047326115970       -0.12528733457465
H            3.48835544085863        1.25326766265668        1.17161283204035
H            4.04779947152627        0.90900202089054       -0.48033333356265
H            2.62584665424773        1.95191948468898       -0.19671151673692
H            3.60260333956205       -1.72720864582879        0.02208133874138
H           -1.15534697769123        5.11924579315356       -0.14249114769551
H           -3.25122801503149        1.54909771723569       -0.02386528469117
H           -1.81247900837428        2.84038318178900       -0.02583560506198
H           -1.02604439888189       -3.47304242065200        0.71859385783530
H           -1.08684755152019       -3.36138000537184       -1.06039410813524
H           -2.48364034262910       -2.85659328731669       -0.09203743532963
H            1.47020306695925       -3.09301365294092       -0.07103805312856
