25
 energy: 134.256760589582 xtb: 6.6.1 (8d0f1dd)
C            3.16323365909380        1.05905501456586        0.13983496813234
N            2.28415377622344       -0.07069560342136        0.06565822851024
C            2.60925377450623       -1.37065233261864        0.03177982217141
N            1.48304418678253       -2.11748535564826       -0.02895664564396
C            0.41409845316263       -1.28015132984909       -0.01694161024098
C            0.89882098497031        0.03705303080049        0.04608908191701
C            0.13227204296609        1.19698847884343        0.06774533928457
O           -0.98186471136494        4.13316482974031       -0.01604834519277
N           -1.23756496665289        0.87069081956565        0.01108024072654
C           -2.15620010637734        1.83790049535668        0.03529156448560
C           -1.79175007008366       -0.45857767518583       -0.03824965563315
O           -2.98693130576534       -0.66349362506979       -0.04518712485119
N           -0.91354250658351       -1.53722728735355       -0.05253625465236
C           -1.41438854473259       -2.89608285997924       -0.12956495234992
H            3.48571657971510        1.22967498029785        1.16959482422211
H            4.04547197509227        0.89536954852967       -0.47720827438120
H            2.61285952777998        1.93256280391330       -0.21018278162909
H            3.60387039927836       -1.75983960952667        0.02622754281302
H           -1.15798639145746        5.04662012091973       -0.17277116549567
H           -3.19753385140221        1.55156794734936       -0.21534726134395
H           -1.74964685562361        2.93042539575378        0.10427766946463
H           -1.05476679710729       -3.48520256981221        0.71754311484991
H           -1.10058247805274       -3.37115688496760       -1.06301377790215
H           -2.50212756965306       -2.84939043575227       -0.10121773079209
H            1.47369251812377       -3.12336638961219       -0.07191082608959
