25
 energy: -4.959521279779 xtb: 6.6.1 (8d0f1dd)
C            3.23819289588303        1.17278450730651        0.09571209819511
N            2.30079229307957        0.10439495579586        0.03711622515309
C            2.60135121311746       -1.24178729927210        0.03281554398282
N            1.41803031323194       -1.93983021097565       -0.00295452381245
C            0.39976495984136       -1.05637822047046       -0.01053094181926
C            0.91280754343253        0.23997495490111        0.01577057911126
C            0.09776184246965        1.40701538322293       -0.00142360304894
O            0.42621570011925        2.59920044800770       -0.00437438972462
N           -1.27725283550895        1.04997362904675       -0.02971945645166
C           -2.19201486575370        2.18723623794846       -0.05775746511017
C           -1.82276368244836       -0.20230636986761       -0.04140484659732
O           -3.02050795826019       -0.39850797648349       -0.06499798126788
N           -0.93839099357182       -1.30600365349859       -0.03745581058337
C           -1.46427508731197       -2.65333212334279       -0.06522619485380
H            3.69960162610527        1.22733908815843        1.08578141963411
H            4.01939225958025        1.02741328944036       -0.65346474410538
H            2.69305217621644        2.09327845620108       -0.10193261076764
H            3.57795378852915       -1.65763198544206        0.04121927460240
H           -1.64571358913468        3.14822045853885       -0.12642184456332
H           -2.88214215130768        2.05761639979556       -0.88700239058081
H           -2.79050682329103        2.17936290469290        0.84559647635989
H           -1.15746500771638       -3.21119410006853        0.82317772799238
H           -1.13714276397457       -3.18395759517618       -0.96322635510572
H           -2.55042750950239       -2.57462120746554       -0.07632876999056
H            1.36462543368726       -2.94543492430166       -0.02032320814030
