25
 energy: 5.040207728350 xtb: 6.6.1 (8d0f1dd)
C            3.22727168217241        1.16198707313295        0.11119133272247
N            2.28844350268869        0.09198937411122        0.04144505335240
C            2.59846084292011       -1.26026896640136        0.03678996976070
N            1.40581598871884       -1.94851336688747       -0.01033866355082
C            0.39409828307388       -1.05425776114977       -0.01566335104712
C            0.89383894416298        0.26145559353041        0.02082890289895
C            0.07193579865858        1.44739108353361        0.01542598789301
O            0.29156030691648        2.66918339067466        0.00688687502422
N           -1.30062790526492        1.05416376670082       -0.04599568694144
C           -2.15720340070528        2.26016860350447       -0.08920487040015
C           -1.83599589576912       -0.21480240338913       -0.04259891861875
O           -3.03121012828234       -0.43253906776054       -0.05528537105891
N           -0.94258164852736       -1.31878371778030       -0.04113534586418
C           -1.45142592573751       -2.67613726637314       -0.07817316046943
H            3.65906994892307        1.24414616934100        1.11403195065580
H            4.03316406217619        1.00584947435977       -0.61144954078089
H            2.68185844439154        2.07223354943953       -0.12898739539783
H            3.57673816365770       -1.68277493915806        0.03963080645173
H           -1.64986769275068        3.26177701910603       -0.34547538003445
H           -2.99699562619417        1.98964023696440       -0.73127841147866
H           -2.60529861531062        2.38040896982654        0.88970443098588
H           -1.13564073529497       -3.24305685358657        0.80255767683405
H           -1.12252015339647       -3.20016047510206       -0.98073365814820
H           -2.53873103009044       -2.61577291209918       -0.08371806788973
H            1.34809167428561       -2.95620938614283       -0.03422960500392
