25
 energy: 132.200920110504 xtb: 6.6.1 (8d0f1dd)
C            3.16089953611028        1.06405877606733        0.14055272090665
N            2.28625824263689       -0.06955678769325        0.06840382177135
C            2.61567676367587       -1.36545521438810        0.02450611726246
N            1.49307735909799       -2.12265509449581       -0.03045637059958
C            0.42039696811129       -1.28869130490706       -0.01652281169098
C            0.90190176167106        0.02423639876025        0.04414919305767
C            0.13938046538014        1.18164280105404        0.05333796503791
O           -0.97356485573590        4.23698938638066       -0.04147590918884
N           -1.23042667789895        0.86952410066987        0.00897392332405
C           -2.11973638585352        1.86204225799752        0.03612987213182
C           -1.78997570907417       -0.46405265780259       -0.03147406455467
O           -2.98457554238398       -0.66887814623581       -0.04560572408547
N           -0.91030563406833       -1.53999744281968       -0.05185041854794
C           -1.41003310416374       -2.90082631119730       -0.12665349347300
H            3.47411955302767        1.24028791064658        1.17352771281867
H            4.04781920003804        0.89050977164656       -0.47310937742547
H            2.60521073217347        1.93441849374757       -0.20708840547864
H            3.60764050050855       -1.76365532983763        0.02533789394173
H           -1.23319952465665        5.12598737195803       -0.20463184849966
H           -3.17187079013405        1.59202803750501       -0.13735157005701
H           -1.72528008663073        2.92583046520474        0.04023737623995
H           -1.05205416709562       -3.49061863697256        0.71971272201142
H           -1.09652228427921       -3.37245501090631       -1.05996988506115
H           -2.49684436871929       -2.86207310252051       -0.09699385898271
H            1.47191664907078       -3.12862887301142       -0.07022000346016
