25
 energy: 151.175511070588 xtb: 6.6.1 (8d0f1dd)
C            3.16445326726083        1.10880623757292        0.15397456272600
N            2.25091276258598        0.02185791451892        0.06855897235915
C            2.57896564049381       -1.27651011327566        0.03367642287171
N            1.45718756913551       -2.02677334446952       -0.02080650604884
C            0.40349706859883       -1.17573580213153       -0.02169085019524
C            0.85756238660464        0.16335879104732        0.03203269348380
C            0.05963322841985        1.32157392421268        0.06139420646960
O           -0.75254638085534        3.81066377404061       -0.06249450053503
N           -1.29730994962842        0.93202285125543        0.02286615521817
C           -2.19459362354027        1.92077620493220        0.04255602388686
C           -1.81535477990438       -0.40965821423572       -0.02866468667593
O           -3.01205047827055       -0.62067114985363       -0.05083412032841
N           -0.91669934112657       -1.46678002826603       -0.06793861225843
C           -1.38019637707614       -2.83934149265168       -0.12671098456466
H            3.41855558961399        1.30430531566771        1.19867534649126
H            4.07321654924706        0.89343735433791       -0.40537169238992
H            2.64017138816931        1.96729757303446       -0.25572891356986
H            3.56143835218006       -1.69850704652059        0.02871753766054
H           -1.41128042489627        4.62572887447609       -0.44191726740037
H           -3.20118905955725        1.72902807442154        0.34472512480094
H           -1.63131148221687        2.96271970433518        0.31844914032318
H           -1.00782599492712       -3.42140111128255        0.71945535457145
H           -1.05868933665076       -3.31831474704948       -1.05651410641899
H           -2.46887223438183       -2.83618510351802       -0.08899743288265
H            1.42949569955691       -3.03780304598948       -0.07159460025701
