25
 energy: -42.436310470730 xtb: 6.6.1 (8d0f1dd)
C            3.26754613335764        1.09393992515685        0.00952662404905
N            2.32749051206989        0.01507210552563       -0.00658373658762
C            2.62019663223642       -1.30367577922168        0.00517299133398
N            1.47141982737861       -2.02550263719814        0.01280581027432
C            0.42985395458243       -1.15697458591527        0.01015283701861
C            0.94067598659871        0.13871916945730        0.00064155761211
C            0.12577228743995        1.28600536424432       -0.03939802554938
O            0.53331218140045        2.45043560058323       -0.09769299649181
N           -1.25856062762313        0.98515359216370        0.00413783420077
C           -2.09991747161604        2.05831014283616       -0.05983090930298
C           -1.79155921096705       -0.31558672099951        0.00234554225506
O           -2.98635496258773       -0.53200123085910        0.00366636756597
N           -0.89756641051500       -1.39996175085186        0.00475041381491
C           -1.39210688938359       -2.75448156297681       -0.01886597753001
H            3.68872611236347        1.20766135331378        1.01096793981114
H            4.07937687445637        0.91730046831573       -0.69702366142101
H            2.73573759412208        2.00789021532195       -0.25114254417301
H            3.60221570511505       -1.72357252654886        0.00239359962115
H           -3.43656010467408        4.39179611135955        0.38152542073339
H           -1.64476510801520        2.98632465843176       -0.43210827822935
H           -3.12905468314670        1.79698700276436       -0.28938733136302
H           -1.08653160613507       -3.28160032862825        0.88748212147858
H           -1.00737412387091       -3.27986531921027       -0.89608566937244
H           -2.47842958747173       -2.71571033337513       -0.07005625230913
H            1.40759980758914       -3.03206130335614        0.01779415452492
