72
 energy: -3.429787918204 xtb: 6.6.1 (8d0f1dd)
N           -1.68973895449755        2.89612174367388        2.39376530393415
C           -1.70782028386650        2.19110451684203        1.35353674694735
C           -2.83060056452514        2.07804718197827        0.35060903159919
C           -3.35162243646771        0.65278950480714        0.41142700958476
C           -4.28853277196392        0.24394393097491       -0.53278578494494
C           -4.84803160694705       -1.01518627954504       -0.50577722391983
O           -5.78897744200397       -1.47474391670691       -1.38039924361595
C           -6.29901727526553       -0.58023071325356       -2.32919499056702
C           -4.45215530582122       -1.93330076528104        0.48522863476866
O           -5.07080128200764       -3.15080620293774        0.43187526725050
C           -4.79114083441195       -4.07721032168123        1.44764874507594
C           -3.50345321787171       -1.53729098017998        1.40654274786062
C           -2.96018151307999       -0.25920666472412        1.36745792375552
C           -2.17674072332087        2.31722691970816       -1.05883698889066
C           -1.21759954815709        1.23045788709617       -1.61620051030036
C            0.10432182958371        1.17917954484146       -0.89091198863502
N            0.71552854415290       -0.03693529751723       -0.56233689760470
C            2.08471508147224       -0.04295510442367       -0.18849787217561
C            3.00462934133387       -0.54187002074250       -1.32564597465416
C            4.42978051796571       -0.44385959619655       -0.89037941580865
C            5.16251488989048        0.71188476534652       -1.09477584992436
C            6.47243915753202        0.81764705972094       -0.63845759904791
C            7.07284229047631       -0.23460216444003        0.03188498822205
O            8.35002811375228       -0.24049404754629        0.51508147422618
C            9.15057694240176        0.89161277709082        0.28812676871824
C            6.32945387201813       -1.41469164788115        0.25407368911552
O            6.99550169809686       -2.40142562589921        0.92186763813786
C            6.33582044493335       -3.61938469810519        1.14300912229793
C            5.02486972945155       -1.50096704011877       -0.20175262723186
C            0.04344215509297       -1.30561436575278       -0.62863186003025
C           -4.07912603995106        3.03835801470138        0.51675042304880
C           -4.70205968238320        2.76105964273585        1.87765400593117
C           -3.62398894726125        4.50655629422225        0.46202576042324
H           -4.56943399433414        0.93821209862665       -1.30383810452335
H           -6.73833693464728        0.30331285725304       -1.85185280494900
H           -7.07406815341203       -1.12851779698269       -2.86358656578321
H           -5.52929378543825       -0.26578734031740       -3.03873404523074
H           -5.02902655296004       -3.67333124465934        2.43896181687510
H           -5.42382650669970       -4.94496107074181        1.24898530436045
H           -3.73984312360875       -4.38345018451410        1.43215200421746
H           -3.18897040409646       -2.21202954070569        2.18411184625980
H           -2.23827993486251        0.02145176685463        2.11241975189096
H           -2.99614948851021        2.46347704505964       -1.76301548794097
H           -1.61350525058342        3.25152053872496       -1.04232984440958
H           -1.73015506510352        0.26718670141057       -1.59617952422871
H           -1.05351819430515        1.46093420748888       -2.68300566484591
H           -0.84555954608897        1.59446110834190        1.05644631573552
H            0.81989767627488        1.97760027587934       -1.06454252881173
H            2.22923714299941       -0.67495810398531        0.70087659245100
H            2.35048985247926        0.97998108423383        0.06879294820584
H            2.83681381605596        0.07550848605242       -2.21086471808991
H            2.74328821559758       -1.57352978447617       -1.57027482515760
H            4.71758011202075        1.54338643101592       -1.62061999530297
H            7.02348477258286        1.73154407295951       -0.80881453663365
H            8.72774189087526        1.77925144991118        0.76657211385893
H            9.28665618624790        1.08789533438585       -0.78302965913767
H           10.11853505395708        0.67580371863693        0.73685262981751
H            7.05654165347556       -4.25750570016673        1.65327778739849
H            5.44883024589134       -3.48867949014738        1.77544347469540
H            6.03325432788135       -4.09544660913137        0.20212759355930
H            4.44838424015745       -2.39896384398545       -0.03996669319039
H           -0.18935219364771       -1.57350887028810       -1.66417224433444
H           -0.86767394634178       -1.28621404657417       -0.04209097088134
H            0.67101828040233       -2.08514689937602       -0.19013359173938
H           -4.83098209583009        2.83251712154084       -0.28486220028294
H           -3.94264532302786        2.89057298107988        2.64844109354553
H           -5.05640636723336        1.73307141283404        1.89297599251840
H           -5.54052683258355        3.43051002348523        2.07899987406055
H           -2.81927393761935        4.68603312583254        1.17420795066356
H           -3.25993921896702        4.77515437615183       -0.52671367433093
H           -4.45431895212816        5.16686732239494        0.71017308280767
H           -0.81665832285493        2.82166688034885        2.91870160660979
