72
 energy: 54.292956373381 xtb: 6.6.1 (8d0f1dd)
N           -1.72606712800736        2.56179830403268        3.07592314767403
C           -1.73450807515949        1.94374619481876        2.03747385047761
C           -2.46791244249156        1.76188415892256        0.90670394333237
C           -3.27077384217268        0.56172932588776        0.83236358466061
C           -4.02671448708445        0.20967234691084       -0.29516080859644
C           -4.77499369913773       -0.94646010657270       -0.33384240379691
O           -5.56206565062567       -1.32664677955106       -1.38438501478053
C           -5.76662487663185       -0.44730151645133       -2.45809207252553
C           -4.72521360650568       -1.85682924369057        0.73386082237297
O           -5.47700462870505       -2.98866756759093        0.60876490601674
C           -5.42677558466186       -3.93363856467677        1.64425698199744
C           -3.93016993795914       -1.51969273621968        1.81104832675455
C           -3.26997957116034       -0.31414633638143        1.88497322907531
C           -1.93484288187597        2.37380775396926       -0.38735522485461
C           -0.99010961624682        1.36328258978380       -1.05826728811643
C            0.28643024785938        1.14980454085427       -0.19126931940776
N            1.10258487881052        0.06425349687849       -0.73485447366254
C            2.50384641235484        0.01659727138674       -0.41398671994058
C            3.34844264233665       -0.50138318663848       -1.59623898586097
C            4.77761268588152       -0.47574706252955       -1.15334672615070
C            5.57503274835186        0.63135309902903       -1.37933543556022
C            6.88720236448612        0.68630637831326       -0.91414096030675
C            7.42284900505267       -0.36934705196344       -0.19651022160493
O            8.69294437865450       -0.42362242291087        0.31273571651713
C            9.54296394000604        0.67408273824653        0.09709920798462
C            6.60840221630130       -1.49717135033990        0.05738651821323
O            7.21002899065327       -2.49174278501851        0.77407222470751
C            6.46153772206794       -3.64354223069800        1.05840331267674
C            5.30141192067091       -1.53382522494912       -0.41118215861821
C            0.49700384909893       -1.25179788800324       -0.71575771552397
C           -5.45841927925423        3.25422259924888        0.07585940914301
C           -5.72439927265842        2.62518778934275        1.40968088336986
C           -4.75051923925302        4.56603493985161       -0.02873680609378
H           -4.07081675570147        0.86878261079309       -1.14997737460228
H           -6.16521757364302        0.51104419816068       -2.11089687252180
H           -6.49699302448049       -0.91158675154408       -3.12601920871421
H           -4.84020382426925       -0.28114702858773       -3.00839400854971
H           -5.77196429090550       -3.50257936270027        2.58852169287845
H           -6.10408102070930       -4.73129463684085        1.34141152630116
H           -4.42340840242071       -4.34618306642336        1.78883551216787
H           -3.80983777629725       -2.18988905134134        2.63675385985457
H           -2.67970044034759       -0.06244332149343        2.74421823377721
H           -2.67821308933524        2.70317374181184       -1.08484585020690
H           -1.39073545918701        3.28901796114259       -0.20504515369981
H           -1.51411288407213        0.41180244601455       -1.19063472704536
H           -0.79024206712843        1.76205289353351       -2.05836682881077
H           -0.08794618147601        1.12815247124015        0.94150563077848
H            0.91485560326926        2.04202877943900       -0.25663434499627
H            2.74653390516747       -0.62728738883301        0.45104134454806
H            2.80806250337120        1.02786738511454       -0.16968020484757
H            3.18989167385364        0.15693981960886       -2.45252433154236
H            3.04776597716623       -1.51878106616976       -1.87285078497475
H            5.18102302374143        1.46365683120936       -1.94458622548133
H            7.49523825847656        1.55587713148268       -1.12542371472046
H            9.14212674394926        1.59277075533180        0.53624228590450
H            9.73076851743654        0.83581972472468       -0.97039051050054
H           10.48317030152626        0.43092258281791        0.59050714592671
H            7.13256978431447       -4.29137766554696        1.62165676851238
H            5.57532127682949       -3.40968027541977        1.66481506464576
H            6.15015182126045       -4.15897067685760        0.14220638626532
H            4.67089690613137       -2.39272896045698       -0.23098723387823
H           -0.31401357448163       -1.29999867706824       -1.44094300220062
H            0.08839227182340       -1.52052115259078        0.26457074158390
H            1.23349524029154       -2.02474393979021       -0.92647022089365
H           -6.23034998886115        3.05006113185676       -0.71081742025662
H           -5.08048446136991        2.82030135576146        2.25197188959463
H           -5.85282751914380        1.54881544605103        1.31103105573012
H           -6.69021940249921        3.06853046019764        1.63542430859867
H           -3.93057040918918        4.85319462275762        0.62964938616768
H           -4.36653067361336        4.69916805974256       -1.03220296541864
H           -5.58483433547391        5.25096125702122        0.15466802389673
H           -1.17028366574048        2.79850837828048        3.88114403526565
