72
 energy: 22.035128003645 xtb: 6.6.1 (8d0f1dd)
N           -2.05959642585544        3.03182540912143        2.65122820883978
C           -1.98932747169463        2.26093066393632        1.66034034982294
C           -2.97856452269690        2.10399791710031        0.51663284433201
C           -3.40284885128827        0.65722046775494        0.55531667088377
C           -4.23016943888782        0.23032473196083       -0.47078326485669
C           -4.83382316269212       -1.00295739392402       -0.46322601736623
O           -5.71591807510048       -1.43587449629512       -1.40757483309825
C           -6.14460480855739       -0.53163712936653       -2.38394114795516
C           -4.53807815997593       -1.91652026831490        0.55972913639506
O           -5.19731559383573       -3.11294724927269        0.48881159578367
C           -4.98044838394267       -4.03794245688554        1.51971884392274
C           -3.62872986641561       -1.53109667523108        1.52374499812582
C           -3.07157956852116       -0.25988955396694        1.52092608855437
C           -2.13487861340258        2.35544196753355       -0.83432960211026
C           -1.13603451638039        1.30703230170818       -1.43868047273298
C            0.26276294158226        1.22911743634093       -0.78815387059428
N            0.88238045155847       -0.02742348628004       -0.57462440338685
C            2.24316245343596       -0.04832652064660       -0.25357958326652
C            3.12003393854652       -0.54049028682316       -1.41537860987215
C            4.54167210780699       -0.46010746544287       -0.97494148479181
C            5.29213611114734        0.68411198856969       -1.17811614801838
C            6.60144240167228        0.77820700157239       -0.70953889308979
C            7.18466344378202       -0.27543525759095       -0.02405377969175
O            8.46160153951942       -0.29013453968562        0.47065070628831
C            9.27404879746650        0.83263810782941        0.23582137190158
C            6.41853400762416       -1.44044430338333        0.20428733517685
O            7.06421209860330       -2.43228709809906        0.88949859446185
C            6.37253923159362       -3.62945331211334        1.12246816303160
C            5.11366175693749       -1.51401577479355       -0.26295705715356
C            0.20539532713351       -1.29754911903437       -0.65484958291582
C           -4.39553829924658        2.99237497509403        0.41946125889345
C           -5.02649130963437        2.71902185793366        1.76627646037687
C           -3.96464258697080        4.47682084226857        0.32254298306407
H           -4.41808982699710        0.91298115553502       -1.28027323323100
H           -6.57215904068958        0.37312576291446       -1.93617650049265
H           -6.91283364726883       -1.04657514901118       -2.96241953880537
H           -5.32092948490780       -0.25966471142226       -3.04355538796070
H           -5.24895917439304       -3.62119904256397        2.49747820060416
H           -5.62556616098159       -4.89261852779594        1.30516768348396
H           -3.93660658052440       -4.36422787280040        1.55147267174359
H           -3.36719180423496       -2.20365015825136        2.32113821513919
H           -2.38645414447074        0.00963097259178        2.29912041331659
H           -2.89370291398423        2.58233846300638       -1.57832327036657
H           -1.54950121581084        3.27152397575362       -0.77520811368468
H           -1.61886440217949        0.32251735410183       -1.48407429795839
H           -1.07687313067128        1.63829564429011       -2.48836024867941
H           -1.14616979523645        1.56293080528009        1.61419867508238
H            1.01606842397876        1.98039855424098       -1.06067762398747
H            2.41054884159885       -0.69095754728343        0.62284978165142
H            2.49592571844308        0.97497907898190        0.00150888303537
H            2.94581327796757        0.09253620320726       -2.28777570624705
H            2.83920944535657       -1.56542312124294       -1.66914703754644
H            4.85996826458334        1.51458524296425       -1.71571938359713
H            7.17222005610625        1.68173140590889       -0.88201406318858
H            8.85280187224272        1.72901495417869        0.69782229909252
H            9.42116785343170        1.01464389100008       -0.83697656173260
H           10.23940408666162        0.62198543892142        0.69435187927991
H            7.06973559361788       -4.28524282369566        1.64770337470568
H            5.48019475994392       -3.45960583063220        1.74081963276966
H            6.06749265558732       -4.11133074868697        0.18491369771357
H            4.51809243994432       -2.39878717222723       -0.09738446843090
H           -0.17151659935026       -1.44784967319164       -1.66141312634163
H           -0.59948264707776       -1.36060409327308        0.06295823277413
H            0.88806424520920       -2.11490197349396       -0.39602651365514
H           -5.15095075622106        2.71890467282493       -0.41646626371628
H           -4.31420165268707        2.88259951865780        2.57017253103690
H           -5.33556544869573        1.67779433556506        1.76784811771437
H           -5.89152843356415        3.35742889017551        1.91878001860628
H           -3.16988244143185        4.72713195289275        1.02757921055758
H           -3.59266658678872        4.72292521362598       -0.66951336737360
H           -4.81229504334151        5.12242981430724        0.54315278569992
H           -1.20441653432649        2.91045831414402        3.20291006667690
