72
 energy: 24.143119101412 xtb: 6.6.1 (8d0f1dd)
N           -1.33004745202018        2.35806304766817        3.24107287603058
C           -1.93147980997875        2.13716314441850        2.20534664100663
C           -2.28602255077892        1.63416459502964        1.03972945905191
C           -3.16540795396015        0.46870235227067        0.95288490590095
C           -3.93459496118728        0.20100271647367       -0.18552885768183
C           -4.74585233362478       -0.91611656954656       -0.25684711417950
O           -5.53389598371839       -1.24749308492828       -1.32406663401684
C           -5.55605981437406       -0.40438230126493       -2.44966477852508
C           -4.79735956559042       -1.82507350738440        0.82328323944993
O           -5.59613260215292       -2.91631455751770        0.65437656151195
C           -5.68044087387271       -3.86081282611684        1.69587160515433
C           -4.04399950061052       -1.54395462455767        1.94886040662279
C           -3.24559991548566       -0.41770871924005        2.01727173127879
C           -1.81093602430401        2.32370147675598       -0.22491150012066
C           -0.89105343152594        1.39153181918067       -1.01843258993951
C            0.39471760172343        1.05881415132221       -0.24785002290290
N            1.17899500990886        0.06435321155097       -0.95458872502409
C            2.57615495372884        0.05777762847611       -0.52981894245795
C            3.46470696185557       -0.44463123294936       -1.67030593023328
C            4.89857238916592       -0.44538177750855       -1.23247222973941
C            5.72640180921222        0.62443213989168       -1.50160327059889
C            7.03869443531031        0.63954262222111       -1.04614730282752
C            7.53899004844975       -0.41146773611574       -0.29758941278390
O            8.79630071780107       -0.49473817170834        0.22075760685501
C            9.68047973872352        0.57317429225706        0.01111597468411
C            6.69851395145215       -1.51294232504278       -0.01565855967346
O            7.27122712620046       -2.50175123961923        0.72485781540975
C            6.51051816933631       -3.64012368961553        1.03780740205617
C            5.39712495966633       -1.51197206928017       -0.48496092707388
C            0.59086622699118       -1.25536026514075       -0.79806658044899
C           -6.03288639286316        3.52744494371730       -0.02258163497273
C           -5.99972828079835        2.68435953411031        1.19890825309459
C           -5.13414357467623        4.69196199540246       -0.20993088830667
H           -3.92679476983408        0.88427351989403       -1.02052311273693
H           -5.92020515279522        0.58850617814480       -2.17392570682879
H           -6.24747664019020       -0.84710478095299       -3.16928544008826
H           -4.57579396549965       -0.31446150354721       -2.92839630287537
H           -6.06775237978018       -3.41500112195532        2.61918725473839
H           -6.37444571058984       -4.62419438192074        1.34512224462898
H           -4.71177885341335       -4.32750955606487        1.90814729608580
H           -4.04304604742530       -2.20603669818920        2.79537921654939
H           -2.65762481812147       -0.23019936949086        2.90135982960477
H           -2.65939463803381        2.63289486618442       -0.82968141929235
H           -1.27515457488832        3.23233761780231        0.04338664679892
H           -1.43134505581629        0.47304368737811       -1.24029093996718
H           -0.63300310614940        1.86327860110829       -1.97185320873763
H            0.19202535376013        0.70626582534043        0.77857418991831
H            0.99072378291989        1.97464736473303       -0.18255152988233
H            2.76087592892094       -0.55740167925162        0.36917123539278
H            2.87978608583481        1.08301722462736       -0.28995640577539
H            3.32740640510665        0.20704626907132       -2.53452811677029
H            3.16256055779911       -1.45170251349533       -1.95247943401676
H            5.35986929378500        1.45628307904603       -2.08479331733969
H            7.66259952791846        1.48633845357726       -1.28464716619832
H            9.30122738839362        1.51281727566974        0.43149255025535
H            9.89526413107838        0.71845634676647       -1.05322838476075
H           10.59607365072375        0.29835100322372        0.53137017165702
H            7.17091054054902       -4.28233666225653        1.61915084553924
H            5.63057021192610       -3.38927519642555        1.64017396948512
H            6.19140115187456       -4.17367967797817        0.13599027901004
H            4.75061650858296       -2.35207548487230       -0.28458055460976
H           -0.36505314167662       -1.30047933628737       -1.31250140479225
H            0.40765140200846       -1.55032488170723        0.25556291090694
H            1.26068902915730       -1.97797497357572       -1.24664760655905
H           -6.82865725915174        3.36649563797426       -0.74391826119313
H           -5.14111328681265        2.91008933990031        1.82390218548371
H           -5.97462058007287        1.62041363713940        0.94735978073265
H           -6.91108295328773        2.83126152757786        1.79144559506757
H           -4.27588118147411        4.66258064928554        0.45202387811896
H           -4.76527855278764        4.76437693909437       -1.23599405795696
H           -5.68073666604078        5.62725798822217       -0.01310354309994
H           -1.55555826448838        3.07056790347204        3.93499460159715
