72
 energy: 48.149200136719 xtb: 6.6.1 (8d0f1dd)
N           -1.60422417225093        2.53966694133972        3.13229739046340
C           -1.77349238332580        1.98535342968276        2.08767281075207
C           -2.42660321887137        1.72656302266409        0.94188957138008
C           -3.24133771466913        0.53149560269781        0.86662651508895
C           -4.00358691669432        0.20606828170816       -0.26536657985497
C           -4.77251810760657       -0.93892890215478       -0.31094888042195
O           -5.55271017778145       -1.30625835281234       -1.37018145995129
C           -5.71283354054131       -0.43700683348526       -2.45965664888903
C           -4.74839846819370       -1.84831364932071        0.75976258127669
O           -5.51744464893308       -2.97126794510803        0.62282992652823
C           -5.49087737632527       -3.91725317472893        1.65686720031666
C           -3.96621463823790       -1.52309667013241        1.85005352313427
C           -3.27881429945571       -0.33323447309635        1.93049938021318
C           -1.90680380929453        2.36457088983741       -0.34130422310490
C           -0.96438753210865        1.37256248147441       -1.02585887631421
C            0.30577739061762        1.14951138363726       -0.17850183004459
N            1.12301777714428        0.06998805775566       -0.75806367750494
C            2.52599062025233        0.04451677587177       -0.44282643429494
C            3.37430703940208       -0.47521341912013       -1.61449498350786
C            4.80605636445280       -0.46861642203249       -1.17527056528780
C            5.61151411944615        0.62974595349900       -1.41052878459142
C            6.92361844200100        0.67472842808049       -0.94914371153030
C            7.45052521999177       -0.38097051037057       -0.22667063053218
O            8.71697767421014       -0.44408786894201        0.28236301425922
C            9.57622256319272        0.64825380757619        0.07480087758992
C            6.62954799272896       -1.50376986194316        0.03145449638386
O            7.22424193793722       -2.49612244876799        0.75287898613672
C            6.47399660985814       -3.64419417404306        1.04982578478974
C            5.32282800353886       -1.53175600749506       -0.43360973259334
C            0.53081642506051       -1.24618224661075       -0.73251770616020
C           -5.60138212656265        3.30714086146192        0.04117564833559
C           -5.82120564406608        2.62868944784804        1.35914700308070
C           -4.86107129903412        4.59820594046340       -0.08130863853568
H           -4.02693600782121        0.86762819422745       -1.12098417767583
H           -6.10428106970573        0.52985573437899       -2.13019109000217
H           -6.43397803775622       -0.89738244826730       -3.13972084445219
H           -4.77239667912361       -0.29121936984766       -2.99126827180601
H           -5.84650312153744       -3.48299732243485        2.59530427289231
H           -6.17185902536589       -4.70585710018428        1.34083492734410
H           -4.49520972037750       -4.34368207193924        1.81753167395502
H           -3.87226745833069       -2.19097495808525        2.68022281282023
H           -2.70393760480333       -0.08802705800102        2.80423844054019
H           -2.68282063461129        2.67867426346348       -1.01204019734000
H           -1.37708085819071        3.28182790865043       -0.13492289589476
H           -1.50329386476185        0.43155964112118       -1.16417222069571
H           -0.74087332003979        1.77470169159380       -2.01603633925419
H           -0.01884437050671        1.04148704282992        0.87515035532963
H            0.91701404230750        2.04986083678679       -0.15168600205675
H            2.76169011962217       -0.58849135604500        0.42731021349539
H            2.83264263320380        1.05562407854770       -0.19709939636247
H            3.22430752753180        0.17878801241317       -2.47303842387143
H            3.07158308200996       -1.49208817963537       -1.88988670488343
H            5.22515817846767        1.46382272813930       -1.97862087730365
H            7.53558059166771        1.53846733914930       -1.16660588408379
H            9.18082590148925        1.57092255157866        0.51136242601074
H            9.77298848041508        0.80748539756809       -0.99077905069617
H           10.50799433982989        0.39393806944743        0.57717822314387
H            7.14368230647976       -4.28817617076708        1.61949036316695
H            5.58940451345849       -3.40644093120678        1.65599620778121
H            6.16107388332811       -4.16659591637514        0.13882993695257
H            4.68930748337791       -2.38703195817036       -0.24740308593662
H           -0.33476197616525       -1.28740033455771       -1.39766983682396
H            0.19350244002009       -1.53152867749447        0.27271949102947
H            1.25452828385756       -2.00269689444999       -1.01116490451230
H           -6.38028258400000        3.11970014439702       -0.73370355968337
H           -5.14155183547271        2.82823622948252        2.16414614585181
H           -5.91152934348135        1.55031875140050        1.22934218204082
H           -6.79698410539120        3.02169828224553        1.63723341743248
H           -4.02990953280852        4.84783717468204        0.56831252506813
H           -4.47292541235665        4.70589391799830       -1.08816480927680
H           -5.66672795441823        5.32543493384480        0.09653722861296
H           -1.22023767575297        2.88383934417803        3.98397754405747
