72
 energy: 68.924997425790 xtb: 6.6.1 (8d0f1dd)
N           -1.82377736121103        2.57652719011625        3.00606949340279
C           -1.71688344734463        1.95238574026430        1.96387150652145
C           -2.51571087990472        1.79887073247982        0.85539787670726
C           -3.29776137514373        0.58608101130805        0.79456537586459
C           -4.05693313667359        0.21335266615594       -0.32303903821801
C           -4.78411003924760       -0.95481417149832       -0.35451759731109
O           -5.57606190221674       -1.34681616546742       -1.39825266710860
C           -5.82141683620785       -0.45658063755341       -2.45576435075454
C           -4.70077958816421       -1.86489371486458        0.71076938301362
O           -5.43792171023530       -3.00831957149372        0.59543976365062
C           -5.36237274462499       -3.94990344841408        1.63342951693936
C           -3.88875024173031       -1.51945317821890        1.77444663555628
C           -3.25355469148646       -0.29944513271300        1.83792917161725
C           -1.96823437561171        2.38087739793404       -0.44396670358580
C           -1.01254624337292        1.35958974975430       -1.09961600171566
C            0.28205054096474        1.14393672524182       -0.23683347388225
N            1.08060091123463        0.05804861057762       -0.75940534783748
C            2.47454313397906       -0.01047321667056       -0.39945752861560
C            3.32053615373008       -0.51476831550079       -1.57859768116807
C            4.74773282947736       -0.47716302924742       -1.12975235811745
C            5.53786517607410        0.63644284408721       -1.34924444345122
C            6.85002121681266        0.69798809074701       -0.88103901987802
C            7.39419032330596       -0.35726019802083       -0.16691033394196
O            8.66772266028855       -0.40211672625552        0.34372020450361
C            9.50927729892402        0.70032392048613        0.11934773407691
C            6.58582736881759       -1.49101634370176        0.08196263213517
O            7.19445979408000       -2.48623425932413        0.79557160195909
C            6.44920735857573       -3.64193581234356        1.06863927264260
C            5.27833173027623       -1.53307529992361       -0.38936875461059
C            0.46409369030794       -1.26369388748220       -0.71004049248257
C           -5.32107790094934        3.20604654258769        0.11369286815821
C           -5.62281100446377        2.62634769765487        1.45930198399102
C           -4.64216614304126        4.53166923261532        0.02148030362879
H           -4.11697531757697        0.87429223350634       -1.17548045646186
H           -6.22628110794837        0.49365917861469       -2.09096017708624
H           -6.56041436486616       -0.92375231207616       -3.11323774952089
H           -4.90881018450167       -0.27019343356395       -3.02362925424711
H           -5.69637079418624       -3.52058176037863        2.58329742052629
H           -6.03597263559669       -4.75801259804583        1.34722421472313
H           -4.35082870274408       -4.34684995392650        1.76212787082591
H           -3.74230963635141       -2.19154945272439        2.59729742299213
H           -2.64645142876430       -0.03987121830160        2.68246897004778
H           -2.69046142642209        2.71715297172645       -1.16277854782288
H           -1.40608622303942        3.29275820217403       -0.28043318210575
H           -1.52023627184283        0.40027629737934       -1.23379208885776
H           -0.83842770544923        1.75537848240064       -2.10747189385929
H           -0.18455788372705        1.20209308564322        1.01921239779904
H            0.91942116735900        2.03156387969319       -0.36645373350237
H            2.71358699532903       -0.67366353428681        0.45751615973032
H            2.77797219834442        0.99816754534571       -0.14378044189904
H            3.15634153105676        0.13851931373593       -2.43696615102951
H            3.02068543474256       -1.53121530818014       -1.85163586096017
H            5.13666564462207        1.46765355846323       -1.91109892704802
H            7.45454660045706        1.57322075403505       -1.08467838442789
H            9.10362976935223        1.61540425765375        0.56081421656696
H            9.68818019627129        0.86403284172224       -0.94999771342957
H           10.45727980126440        0.46731926096791        0.60399145621789
H            7.12162782145412       -4.29378895884873        1.62544441985523
H            5.56082204478848       -3.41274953505563        1.67446883394328
H            6.13973448152168       -4.15076008029528        0.14772851707928
H            4.65094509883644       -2.39497583110614       -0.21380619361662
H           -0.29579715782155       -1.31936011029089       -1.48316027172243
H           -0.00926392214112       -1.50090012422586        0.24715868710489
H            1.20876758706183       -2.04638111413503       -0.84375086761422
H           -6.08332829540243        2.98661978258051       -0.68360633046127
H           -4.99461403143046        2.81818150299393        2.32122150799877
H           -5.78656106559183        1.55546703384216        1.38580412598585
H           -6.57714956959092        3.10708106971097        1.65076040997879
H           -3.83246996359700        4.83925223495588        0.68996164506195
H           -4.25926779893147        4.69305986990689       -0.97805989079461
H           -5.49285916602497        5.19157516048780        0.20867238713609
H           -1.24060513364405        2.78576232650775        3.79969541845825
