72
 energy: 73.782313463202 xtb: 6.6.1 (8d0f1dd)
N           -2.08346363331085        2.83954551950349        2.82260762622779
C           -1.86096357234650        2.13651245316757        1.80223306415881
C           -2.82977996792263        1.98818541765897        0.66125328841380
C           -3.39625439645715        0.64169720357421        0.68335219214075
C           -4.15131560436208        0.21523914678724       -0.40650146551174
C           -4.80851754134662       -0.98750334491136       -0.41496402735290
O           -5.64606713926087       -1.39626577066930       -1.41355367669716
C           -5.98541389324125       -0.49030285503709       -2.42821929610345
C           -4.62162507266394       -1.89489197045120        0.63838939602351
O           -5.32296904061927       -3.06767564172461        0.54944433569059
C           -5.17108889791190       -3.99590175439572        1.58775135526682
C           -3.75843755187509       -1.52513315997067        1.65105211628561
C           -3.17384939995726       -0.27049190480199        1.68243152628994
C           -2.06696709914905        2.38173392988234       -0.63939569516612
C           -1.07017842525469        1.34704713482184       -1.26591111938973
C            0.29667041010521        1.19916238665293       -0.57445323608397
N            1.00527235297982        0.00315255332634       -0.67344317007221
C            2.37383213440117       -0.04039344990574       -0.33856801194528
C            3.22661963330083       -0.53312859639929       -1.50757547248826
C            4.64894413302486       -0.47238882271150       -1.05575871119271
C            5.41743307293921        0.65793751088748       -1.26347708339956
C            6.72811904796928        0.73711533015802       -0.79352661578787
C            7.29309731980180       -0.31706373384626       -0.09333687393203
O            8.56854967009204       -0.34447650855136        0.40879384531222
C            9.39553861205147        0.76929369868392        0.17901162446907
C            6.50503252812674       -1.46765028189699        0.14494130293511
O            7.13210657830435       -2.46153489252170        0.84357036000664
C            6.41174140864402       -3.63751851205158        1.09634067705593
C            5.19844479709058       -1.52586444248177       -0.32617691736654
C            0.34973825131526       -1.29339652145825       -0.68275440106743
C           -4.82094643348632        3.06955314406879        0.28739406453261
C           -5.33648504865138        2.67582781804463        1.63254519531636
C           -4.30127849527455        4.48396466144896        0.17966443759378
H           -4.26502229125885        0.89166183884403       -1.23960418635597
H           -6.40288321960076        0.43791689100403       -2.02112330258405
H           -6.74148416504721       -0.97612212532546       -3.04951370041493
H           -5.11319059473025       -0.26065511069597       -3.03938950658646
H           -5.47225700992210       -3.57274887197141        2.55200985393400
H           -5.83114863874807       -4.82887168661706        1.34292002508718
H           -4.13967553829508       -4.35148021995223        1.66668606261151
H           -3.55000489843052       -2.19693036390751        2.46414901702595
H           -2.52648892514352        0.00043705583638        2.49352235092714
H           -2.78864203254558        2.68799667838327       -1.38348115633310
H           -1.47813483497595        3.28711279565323       -0.51989113778340
H           -1.54541857954772        0.36317037661687       -1.35483209777667
H           -1.00551176680045        1.72865700229657       -2.29460590709428
H           -0.88541991245367        1.55758007090880        1.47791941279929
H            0.98063324830111        2.04792092313314       -0.71019172904810
H            2.56873363259694       -0.69664019241798        0.52276121682822
H            2.65490656934681        0.97336063162955       -0.07496540291042
H            3.05427686145121        0.11227782882609       -2.37035194327008
H            2.93314324162547       -1.55280446814815       -1.76914419865891
H            4.99942623383317        1.48798236027220       -1.81323451399583
H            7.31742633468586        1.62596119043967       -0.98213115933876
H            8.98159838472971        1.67462302347666        0.63141515681563
H            9.55776096926517        0.94262352233689       -0.89198525019887
H           10.35421403485729        0.54820009504655        0.64873784260345
H            7.09283590436715       -4.29531188180879        1.63882974437766
H            5.52053150550450       -3.43252433229882        1.70648623615848
H            6.10720053857307       -4.13244219587223        0.16630520184675
H            4.58601077226970       -2.39869198213608       -0.15717980318457
H           -0.22929793899334       -1.37005409423427       -1.59163002237550
H           -0.30967842055011       -1.44236544098960        0.16637404926246
H            1.08270956498346       -2.10797080094202       -0.61286011286987
H           -5.58353669514177        2.81338636296433       -0.55203878145783
H           -4.68265812549685        2.86586366211571        2.47565182645636
H           -5.58834861646951        1.61969988277899        1.61316441963112
H           -6.24556986298678        3.25569391765496        1.75937608455138
H           -3.51407909925707        4.78022788342294        0.87467592199564
H           -3.92546937453052        4.69434667194328       -0.81775646972679
H           -5.16560858366555        5.11644675431620        0.37564661895507
H           -1.32291075528034        2.88136525901798        3.48180583115418
