72
 energy: 38.951528280106 xtb: 6.6.1 (8d0f1dd)
N           -1.50319448248722        2.50300163194233        3.18249975585109
C           -1.88920394741031        2.09182496049281        2.13118194329715
C           -2.38165047706740        1.68853473773163        0.96849712005245
C           -3.20932077877730        0.49831457000925        0.89734956245949
C           -3.98052612104101        0.20400378126922       -0.23573932074860
C           -4.76597243432918       -0.93026628083259       -0.29025289018102
O           -5.54330697330269       -1.28413739648644       -1.35579606212382
C           -5.65970926588145       -0.42500458032907       -2.46134141402331
C           -4.76759447066148       -1.83822127398200        0.78576724044066
O           -5.55590430258300       -2.95323121020667        0.63778651176502
C           -5.55396259809152       -3.89997550764789        1.67233234431623
C           -3.99749381766169       -1.52628020447246        1.89043164562927
C           -3.28112394829847       -0.35362705848490        1.97460396899094
C           -1.88277976102854        2.35475629645173       -0.29752100322466
C           -0.93800218983630        1.38635752193396       -1.01450242368015
C            0.34280338302487        1.13061083222594       -0.21786561554226
N            1.14542286129586        0.06987338932093       -0.84203342526518
C            2.54468537304316        0.06645780136886       -0.48768608511063
C            3.40878129400935       -0.45796876064945       -1.63862947409605
C            4.83757890874836       -0.45640412276504       -1.19275947556828
C            5.65068657137647        0.63092427121457       -1.44139457507537
C            6.96302675133078        0.66336490156307       -0.98237145534079
C            7.48285929086471       -0.39257120586268       -0.25491842875402
O            8.74774431790172       -0.46308475044567        0.25892561224402
C            9.61268823335915        0.62350276439533        0.05338889910611
C            6.65520971946861       -1.50752944991155        0.01003770646972
O            7.24419184864409       -2.50105292755510        0.73744804291034
C            6.48811518468250       -3.64381785626591        1.04318829934956
C            5.34766069892279       -1.52328526781743       -0.45147852351526
C            0.55312863477282       -1.24763541835597       -0.75534444562501
C           -5.75032180220439        3.37002354532399        0.01135410814953
C           -5.89715343627294        2.64200185176098        1.30617926856041
C           -4.96213936662828        4.62553717371401       -0.12763113665427
H           -3.98629302099317        0.86932190103945       -1.08923395400625
H           -6.04452637140408        0.54980893965073       -2.14760886013437
H           -6.37140483617820       -0.88115527046072       -3.15447867139984
H           -4.70612873298468       -0.29746547636763       -2.97513325895979
H           -5.91974169935984       -3.46236066688816        2.60628543133630
H           -6.23806519325090       -4.68097641240082        1.34364216187977
H           -4.56568590035877       -4.33807614284265        1.84950621051856
H           -3.93202278141370       -2.19224461660311        2.72610370701647
H           -2.71946302958560       -0.11938764645001        2.86253651451952
H           -2.69344529956424        2.65629931711263       -0.93978512099452
H           -1.35351619348507        3.27165898560973       -0.07060070725407
H           -1.47232015443027        0.45026023734881       -1.17814037448707
H           -0.69274748073900        1.80352988489339       -1.98467934978166
H            0.03983566760250        0.92400133200447        0.83041965661183
H            0.94339168906393        2.03112666531647       -0.14682880814544
H            2.75674465413740       -0.55583084241068        0.39039250515248
H            2.85422329337621        1.07681029634102       -0.23058968754304
H            3.26100183659290        0.19180008364962       -2.49945820217066
H            3.09832108844182       -1.47107429881045       -1.90796916742445
H            5.27069261653368        1.46472133862982       -2.01368885745567
H            7.57887683518709        1.52150927622754       -1.20556706760522
H            9.22144614523355        1.55087447184207        0.48502650731102
H            9.81527296082773        0.77764378389337       -1.01155542147464
H           10.53805284353197        0.36137804847915        0.56259126447689
H            7.15490057221031       -4.28537657484633        1.61846300900375
H            5.60441815866855       -3.40109437479125        1.64822637893019
H            6.17329721991771       -4.17284844856394        0.13660746572701
H            4.70961297321870       -2.37293123618409       -0.25866606558870
H           -0.35469859875760       -1.28333438031630       -1.35910514827132
H            0.29887286302311       -1.53070663496026        0.27560434993880
H            1.26136654750438       -1.98989555163418       -1.09868046514853
H           -6.52996836224519        3.19035103231595       -0.75559912702758
H           -5.15040586380462        2.85582286595267        2.05173971902765
H           -5.95611321692435        1.56511296411633        1.14578331387296
H           -6.87829595462685        2.96944655510209        1.65975309697999
H           -4.11826891642706        4.80822535997977        0.52332122487052
H           -4.57790852352160        4.71402695017407       -1.13887282835866
H           -5.70505045095411        5.41738553212310        0.05535781555353
H           -1.37986696532374        3.02263561803118        4.01271241872803
