72
 energy: 31.681273645940 xtb: 6.6.1 (8d0f1dd)
N           -2.13385130215081        3.02754966502095        2.73015022766978
C           -2.03775819518580        2.26384491773162        1.73689150031997
C           -2.99818632031307        2.09613653976011        0.56677110087961
C           -3.41311823813103        0.65596903564171        0.60133375871160
C           -4.20733070816473        0.22573817222226       -0.44943886956638
C           -4.82630621845502       -0.99882482616061       -0.44877120861452
O           -5.69162902834849       -1.42350250130009       -1.41278422455923
C           -6.09173884086111       -0.51683869557357       -2.40036127298324
C           -4.56584857931643       -1.90964725647334        0.58560188672976
O           -5.23924484850944       -3.09766816958358        0.51005463207280
C           -5.04382118947273       -4.02394106507386        1.54387511896212
C           -3.67014704266791       -1.52865258555435        1.56450045486961
C           -3.10655167272670       -0.26046927325880        1.57366468833021
C           -2.11932870709013        2.36742763847439       -0.76244437473073
C           -1.11764707971243        1.32315543930108       -1.37519427638405
C            0.27747875574547        1.21790627623834       -0.72193160715828
N            0.92805175153122       -0.01919067245132       -0.57850438299903
C            2.29163757107062       -0.04639935854420       -0.27935370890145
C            3.15644027636737       -0.53879146694286       -1.44727251957323
C            4.57774473188553       -0.46499928285646       -1.00303722389698
C            5.33443024318686        0.67504433371491       -1.20645814093166
C            6.64389136489928        0.76452340622467       -0.73653172365511
C            7.22126938138209       -0.28946444010476       -0.04615104756547
O            8.49822178834470       -0.30798629794479        0.45123849815608
C            9.31506169984979        0.81186465573067        0.21729373847512
C            6.44770441030667       -1.44963351388014        0.18520529061825
O            7.08731094542898       -2.44270242598253        0.87513062450704
C            6.38564131058776       -3.63273987659120        1.11415193592351
C            5.14242337854620       -1.51835714145025       -0.28404583390957
C            0.25738087349190       -1.29618798840197       -0.66144667868598
C           -4.50296629981454        2.99547427936945        0.38564593117209
C           -5.13227865673013        2.70481078060924        1.72604138671519
C           -4.07515883506452        4.47399160954456        0.27688969013861
H           -4.36762914043669        0.90522963386869       -1.26859327722842
H           -6.51591261286211        0.39550570542609       -1.96495218788175
H           -6.85666342823640       -1.02125321861416       -2.99312518645465
H           -5.25126710730127       -0.25898581141540       -3.04350346627938
H           -5.32321114698177       -3.60498445815789        2.51716562851730
H           -5.69428635665580       -4.87149297845546        1.32032976685483
H           -4.00377755720374       -4.35943232266776        1.59097961587447
H           -3.42661600192884       -2.20043644655137        2.36827788637671
H           -2.43490507214355        0.00806280308112        2.36420943281123
H           -2.85683453948350        2.62275806361554       -1.51560825942700
H           -1.52780007691941        3.27765202763324       -0.68529241975891
H           -1.59275966241369        0.33626071439878       -1.44147811423772
H           -1.07427600619525        1.68450131303848       -2.41668375284264
H           -1.16573010889092        1.57995413299909        1.60489000559410
H            1.00646653258081        2.00991465992285       -0.94731175758879
H            2.47014581426765       -0.69435972781030        0.59030860886716
H            2.55173253471498        0.97449848287718       -0.02391065924198
H            2.98201510229696        0.09871432477713       -2.31588922957760
H            2.87082386139140       -1.56193990624396       -1.70308955633595
H            4.90666610739824        1.50538590305594       -1.74783838661869
H            7.22117866629722        1.66332183934011       -0.91381809937610
H            8.89581056249937        1.71119196181299        0.67577504393139
H            9.46694112925812        0.99081340531393       -0.85509748041070
H           10.27862302211385        0.59870718968201        0.67934205982565
H            7.07617571417738       -4.29131463827147        1.64538930426360
H            5.49311352588445       -3.45018764298790        1.72910546020300
H            6.08083918046063       -4.11845905143340        0.17872596592693
H            4.54103854393711       -2.39900561898184       -0.11729003899665
H           -0.18460055822011       -1.41198304856839       -1.64283992369823
H           -0.50537845969368       -1.39012865995897        0.09891687416891
H            0.95841269099510       -2.11846075660477       -0.47155145334896
H           -5.27568593900240        2.73416908704678       -0.45465473726049
H           -4.44566455445390        2.87950023089817        2.54710588278972
H           -5.42512340116991        1.65908770731775        1.72205419531104
H           -6.01008708325800        3.32717288426946        1.85776028140329
H           -3.28660232594677        4.74731961000273        0.97919239372645
H           -3.70323262134604        4.71076655120947       -0.71743639991636
H           -4.93216873518496        5.11044025594148        0.48640741737485
H           -1.28744745922943        2.92356033436190        3.29215602132933
