72
 energy: 12.758751632855 xtb: 6.6.1 (8d0f1dd)
N           -1.94779488141161        3.00250888849525        2.56580636748486
C           -1.90504951666501        2.24266847860131        1.56500988351617
C           -2.93038849645662        2.09449880741725        0.46125461149446
C           -3.38640717687093        0.65453597297598        0.50661920695700
C           -4.25176675491303        0.23453795522548       -0.49199020566095
C           -4.83991345210534       -1.00746449752432       -0.47770671911802
O           -5.74139446720031       -1.44925401208355       -1.39979217781454
C           -6.19665266906479       -0.54699774789616       -2.36592185033839
C           -4.50949409322233       -1.92280956001478        0.53441802759065
O           -5.15484064873354       -3.12705551861941        0.46828893954118
C           -4.91729742393142       -4.05173579070993        1.49521644753024
C           -3.58716397046829       -1.53346528634744        1.48431909230691
C           -3.03465392611310       -0.26026979859570        1.46893823339845
C           -2.14704897263508        2.34172611077931       -0.90971759387796
C           -1.15621291403100        1.28599232722368       -1.50511970951091
C            0.23802811625894        1.22698637231515       -0.85313111954736
N            0.82861488450568       -0.02742709377553       -0.57005795847910
C            2.19088378190069       -0.04757395841779       -0.22972942490845
C            3.08205562007191       -0.54158260802248       -1.38402206453321
C            4.50467077701902       -0.45488847597466       -0.94664606164771
C            5.24929250577855        0.69334013799738       -1.14988144870721
C            6.55857167744558        0.79177393959276       -0.68374287600232
C            7.14770308502472       -0.26156909483643       -0.00337524654903
O            8.42466595225410       -0.27297982154216        0.48807684930605
C            9.23291164010819        0.85275742871061        0.25387685056144
C            6.38907908903068       -1.43147058398259        0.22225488054304
O            7.04110382055191       -2.42194004119187        0.90221267598561
C            6.35969232297740       -3.62609358216363        1.12995017663178
C            5.08447567090597       -1.50962626895642       -0.24216064526810
C            0.15169918559629       -1.29764099938101       -0.64777347318223
C           -4.28981761141627        2.99636863523973        0.45187498022230
C           -4.91902251243723        2.73320413066508        1.80447778888552
C           -3.85440093432780        4.48195502513857        0.36800618257644
H           -4.46846716857205        0.92087927162401       -1.29038932658834
H           -6.62723313533714        0.35063002673532       -1.90676181688528
H           -6.96788670981749       -1.07199214574659       -2.93024441759321
H           -5.39027532132851       -0.26072188985569       -3.04212109999058
H           -5.17521464669993       -3.63824088717439        2.47756290794546
H           -5.55774499526584       -4.91211762241143        1.28748878650975
H           -3.87037455145810       -4.37038446366690        1.51156743659577
H           -3.30790029269416       -2.20652738672216        2.27523613730979
H           -2.33636227942502        0.01344082356321        2.23449922191119
H           -2.93034025560615        2.54199611883384       -1.63875095140907
H           -1.57128240886855        3.26543059952874       -0.86360218062708
H           -1.64890096441860        0.30612977846900       -1.52553044072464
H           -1.07450422642478        1.58189689793230       -2.56306945919154
H           -1.06263048657096        1.56265517693214        1.48131929043093
H            1.00554776725761        1.95673476555883       -1.14117818665303
H            2.34996512405697       -0.68555270110865        0.65238130185660
H            2.44321706737601        0.97658766557077        0.02494619438089
H            2.90968316977018        0.08622763485430       -2.26086497905122
H            2.80764252027154       -1.56878110921594       -1.63515092062703
H            4.81280715675431        1.52421274477267       -1.68339929066373
H            7.12279102758274        1.69952037850040       -0.85305771170011
H            8.81022405348466        1.74615165755197        0.72024662350646
H            9.37582326543302        1.03857542634393       -0.81892229894838
H           10.19957586396695        0.64284228965608        0.70912155592769
H            7.06409713918250       -4.27734007424114        1.64974504750350
H            5.46823344144093       -3.46935273951777        1.75229873245444
H            6.05474216059531       -4.10501783585914        0.19073680652359
H            4.49514167457711       -2.39874804904379       -0.07767607466200
H           -0.16439092379723       -1.48568168965735       -1.67303427883905
H           -0.69267108065213       -1.33350843213688        0.02557245931890
H            0.81419600969564       -2.10611577971641       -0.32048047896027
H           -5.02791306004721        2.71335265606002       -0.37956583713248
H           -4.18364763561556        2.88610715484643        2.59213815874352
H           -5.24384452303406        1.69653140313161        1.81174043643684
H           -5.77359220595452        3.38485623447312        1.97805650074417
H           -3.05470754966974        4.70769414455789        1.07634343822505
H           -3.48217409804073        4.73794058498274       -0.62149195571903
H           -4.69377876958247        5.13617163917289        0.59927624974442
H           -1.08678103861735        2.88516179622864        3.10996190612091
