72
 energy: -99.662242975332 xtb: 6.6.1 (8d0f1dd)
N           -0.43994363665984        2.74923825638358        1.92009035732545
C           -1.31983769428597        1.91644672530639        1.57228373194356
C           -2.59980931706707        2.09431293610188        0.74864594105036
C           -3.29613023916400        0.75750740218930        0.80029539840140
C           -3.85979432726263        0.29098878058953       -0.37915269060774
C           -4.24245358754868       -1.02391976867086       -0.51763357650144
O           -4.70000228308724       -1.56902211935705       -1.68305820884903
C           -4.83250999569996       -0.70977516653200       -2.78799878042516
C           -4.09933056436571       -1.88927273596092        0.58448961964458
O           -4.40495721671445       -3.19362548540525        0.33713623851923
C           -4.27858093679691       -4.10228081062376        1.39624366441125
C           -3.68052988419154       -1.38025216958486        1.80302646466439
C           -3.28685547161063       -0.05546817591725        1.91641390495595
C           -1.90523725636909        2.29982881726240       -0.67112610533967
C           -1.28909731885715        1.21869794629924       -1.73073287697119
C            0.09191917903702        0.84907478544331       -1.45315733604066
N            0.32518067968561       -0.16752602446298       -0.53590414572667
C            1.71263211349609       -0.24812874240193       -0.20239297654937
C            2.56998999105734       -0.68755990589141       -1.40881692291248
C            3.99837147620132       -0.51777642071937       -1.03047556232923
C            4.65380893230918        0.68076346749593       -1.22988521842670
C            5.95161979880321        0.85154760299837       -0.76925976459207
C            6.59899664496190       -0.16970728039050       -0.09361073778689
O            7.86960606335103       -0.10910356457815        0.39896930808555
C            8.61431185810562        1.05520769712501        0.15640251917461
C            5.92315769017941       -1.38946215551632        0.13256139482921
O            6.61833598708584       -2.34091115785627        0.82014842439338
C            5.97828309905177       -3.56363160868185        1.07539139503580
C            4.63404526043584       -1.54186665156483       -0.33555508535879
C           -0.38128802770304       -1.42682972440913       -0.59565579707445
C           -3.81103484265855        3.14435461578463        0.83082445135148
C           -4.74176239952492        3.09555207485321        2.05966494914536
C           -3.54650833135939        4.62402104234372        0.53188097274200
H           -3.94413961698088        0.97427201350180       -1.20497871989669
H           -5.54568187326032        0.09314920685877       -2.58692777913855
H           -5.21420838506133       -1.32652066099496       -3.59949588116803
H           -3.87131939693036       -0.26762627574460       -3.08288497283570
H           -4.95304884896458       -3.84959512639542        2.21954771279396
H           -4.55765528943479       -5.07116230115303        0.98806768368689
H           -3.25091703454934       -4.14449984082778        1.77293898056219
H           -3.61024675607872       -2.01287751897970        2.67290652821594
H           -2.94284082573479        0.32267150523450        2.86930188798759
H           -2.63258106753960        2.76435222783530       -1.32051234360838
H           -1.14329458552999        3.03874439212383       -0.40180258453325
H           -1.78991028287238        0.26281393372948       -1.89703417179393
H           -1.32781647315670        1.69531621080365       -2.72108066717694
H           -1.09162941050249        0.83764695374691        1.60725390870426
H            0.80937796521694        1.65589006436935       -1.44404616670021
H            1.85651755671778       -0.92460175560687        0.64069629770277
H            2.02132822952979        0.75759252048134        0.09995067868391
H            2.30531227919298       -0.05721910272758       -2.25981020113368
H            2.34339173197048       -1.72433078675464       -1.66081094059710
H            4.15348559616211        1.48852784795825       -1.74436482723677
H            6.44447209711058        1.79527563169010       -0.94107409567612
H            8.16830690082670        1.92965414172538        0.64314264571993
H            8.71708358292164        1.25250182157661       -0.91645067432360
H            9.59654582999598        0.86602325186149        0.58485901711364
H            6.71124049054699       -4.16913920134828        1.60537700810727
H            5.08818472856269       -3.43514458333843        1.70135176157633
H            5.69535103368736       -4.07394354250072        0.14812367595678
H            4.08718252694225       -2.45687296507646       -0.16892274375777
H           -0.03229358814306       -2.08380908357841       -1.40304183821387
H           -1.45022764294331       -1.27716836438021       -0.71694651224268
H           -0.22274981211690       -1.94896522644416        0.34674412143211
H           -4.44932177975751        2.79295832355938        0.00780964878779
H           -4.28056692004285        3.50667941977094        2.95053605034798
H           -5.10658991792657        2.09353190509042        2.27666835577381
H           -5.62280339461565        3.71088947528040        1.85050742077902
H           -3.14598790212370        5.13961072482503        1.39391632682506
H           -2.86965764401848        4.76394250228466       -0.30373843697038
H           -4.49971765092208        5.09823916935617        0.27548359768974
H            0.42653895560732        2.30322164005229        2.24178289921969
