25
 energy: -42.152522348855 gnorm: 0.005115960447 xtb: 6.6.1 (8d0f1dd)
C            2.96399184232519        1.79558076786460        0.05833256704147
N            2.34938906881625        0.70434290361366       -0.09702324857026
C            2.71493968146681       -2.03237063101825       -0.17072960351661
N            1.41597448220881       -1.97268074724257        0.03631460827829
C            0.57530082922529       -0.88340401394005        0.01127049604573
C            1.02494609234334        0.43730029048197       -0.02378855608879
C            0.05002439849895        1.54178847603275       -0.01786273045929
O            0.38196671285780        2.70683469698310       -0.01536808221212
N           -1.27603781984935        1.15796203105587       -0.00609624014986
C           -2.29787753034128        2.19549896746518       -0.01990815844033
C           -1.73851163009273       -0.13611533407406        0.02897040363915
O           -2.91003822717630       -0.39943919056208        0.04283757539197
N           -0.76554903470652       -1.15115004534887        0.04853169222163
C           -1.27603852112232       -2.51213229433170        0.06213491732063
H            3.26149292035024       -1.14019827682797       -0.41832422158454
H            4.02459279105625        1.81105572790870       -0.14828093753439
H            2.49086669722410        2.72325853362293        0.38566886318172
H            3.20419715804646       -2.98611771906681       -0.08946821455316
H           -1.80102702678697        3.16243236490558       -0.04441322803248
H           -2.93283605216495        2.07301994276097       -0.89730737554719
H           -2.92162085398306        2.11249266022258        0.87014748934062
H           -1.03515552400292       -3.01966960144660        0.99887298606218
H           -0.91639808669358       -3.07833755340456       -0.79832071812637
H           -2.36323544140810       -2.44150282444337       -0.00698571700537
H            0.93707458800750       -2.85021058961079        0.24196705119796
