25
 energy: -42.143852481092 gnorm: 0.005241717766 xtb: 6.6.1 (8d0f1dd)
C            3.24932951639238        1.19055860671205       -0.00767638762362
N            2.17993329765434        0.27491776061426       -0.02550291715547
C            3.46633570952459       -0.28677669830050       -0.05932350566171
N            1.16828863878315       -2.20251897058061       -0.08356572881521
C            0.34009491032436       -1.24312376899160       -0.04642639684225
C            0.91945152427753        0.10612671160663       -0.01581730230007
C            0.05432050218331        1.33008223025198        0.03623265214027
O            0.55469059893404        2.42865633906918        0.05367448060130
N           -1.27944330972388        1.06887613437287        0.05902347303411
C           -2.20664763954294        2.19115155488291        0.11165164438074
C           -1.87729044317331       -0.19778440965025        0.03062122038340
O           -3.06900116071160       -0.30958458670256        0.05252205957372
N           -1.03214925276694       -1.30302138767661       -0.02447844592850
C           -1.66237741164955       -2.61621736347969       -0.04865217165157
H            3.41733859935606        1.73154822960075        0.91798994043819
H            3.37490510938506        1.80810737360887       -0.89032407195956
H            3.77951581640725       -0.76631575077613       -0.97449782244478
H            3.78016290196495       -0.81506926780422        0.83415114546731
H           -1.63043472401959        3.11241496035835        0.09599337374618
H           -2.88049796603715        2.14926237979980       -0.74329990897248
H           -2.80258490294727        2.13270087318902        1.02186695520738
H           -1.36581648580788       -3.19280714011538        0.82852366068736
H           -1.38515540012460       -3.15057002983715       -0.95801312834259
H           -2.74081585973197       -2.47430973411850       -0.03310767563204
H            0.80827894514934       -3.14806550443243       -0.10039352442992
