25
 energy: -42.126465446001 gnorm: 0.004426422661 xtb: 6.6.1 (8d0f1dd)
C            3.88258968487505        0.63832711736604       -0.25037619610206
N            3.48931150175741       -0.55671426421088       -0.40968600261879
C            2.74611053219647       -1.52566926272487       -0.00566929117202
N            1.40323648676700       -1.58849301110268        0.21588653926453
C            0.41672482874147       -0.64270379146716        0.13179087388675
C            0.63091316914262        0.72554959815444        0.14318040164848
C           -0.42939973542423        1.60985310118769        0.06983352954175
O           -0.16896574162041        2.91547704980460        0.10395065323787
N           -1.71604707603494        1.14994349731415       -0.04186744192146
C           -2.79205326075986        1.94198379557215       -0.17833684083469
C           -1.97693046942788       -0.26124815067414        0.00625175736371
O           -3.10924265103505       -0.66216626342340       -0.02704627132413
N           -0.88665666144871       -1.09589673155996        0.07748137501376
C           -1.18405519173909       -2.52163561309189        0.06662913090912
H            3.72289507621813        1.21347973433316        0.65743144581970
H            4.49947049501588        1.06742487240133       -1.02645001523427
H            1.61314035416664        1.14792850252648        0.22233489837147
H            3.22988022517873       -2.49614250672911        0.03157932941818
H           -0.95880743328073        3.45740478492859        0.24506502269833
H           -2.69953486156881        2.99990750816389       -0.32087546546903
H           -3.75186103132218        1.46542780714444       -0.21148198451970
H           -0.89918535263841       -2.99022794048153        1.01026023949149
H           -0.69854866227012       -3.01168436327178       -0.77835976627894
H           -2.26248708507992       -2.62913818828491       -0.04894972891892
H            1.05993437369298       -2.53274874026748        0.34859542562774
