25
 energy: 22.251026046993 xtb: 6.6.1 (8d0f1dd)
C            3.34858275727721        1.08332844958581        0.13526768804915
N            2.34559306753638        0.06581752687445        0.00813652141365
C            2.63212810003688       -1.29409474104271       -0.06010312470053
N            1.43402788782695       -1.96719415273929       -0.12868196599698
C            0.43009686704883       -1.06921533460859       -0.04565079867110
C            0.92780517238301        0.22253297843052        0.04177729412459
C            0.05640798201751        1.38608662577347        0.11116359611180
O            0.46229421113958        2.53922435814311        0.25023147323311
N           -1.43936908142933        1.15942270472831       -0.03240155277106
C           -2.52462959538917        2.36415804268718       -0.23822141953467
C           -1.86750009196441       -0.15530901410162        0.08150487013046
O           -3.03050657008364       -0.48501263843422        0.17419136479295
N           -0.91307037511819       -1.26751506200721        0.03436741035956
C           -1.36153883410047       -2.65238156908938       -0.01617416182723
H            3.89869319295272        1.00839889609271        1.08757613314708
H            4.08543587630164        0.98191994887088       -0.66977146588596
H            2.86464965227751        2.05152312944560        0.07758786118219
H            3.59908560345862       -1.74553137665473       -0.14578090061680
H           -2.00751186918878        3.32509869669164       -0.25972575786461
H           -3.11162407920296        2.29759816484001       -1.16386753384776
H           -3.20919911218832        2.38899324796883        0.60713771503912
H           -0.98181254844956       -3.23244043070429        0.83425443567750
H           -1.00258723276258       -3.13961500590828       -0.93211909616163
H           -2.44997475707379       -2.66673744683184       -0.00439300025076
H            1.36817643915885       -2.97020234703872       -0.21236638276694
