25
 energy: 6.830445943550 xtb: 6.6.1 (8d0f1dd)
C            3.31525534100792        1.11751016216532        0.12009307801924
N            2.33207011407679        0.08108466003495        0.02711790005740
C            2.62216918963671       -1.27780067549052       -0.01903839039378
N            1.42365285266038       -1.95916891427474       -0.08012832906325
C            0.41888946463324       -1.06305628382954       -0.00597733888100
C            0.91991435447969        0.22863862190493        0.06940022079315
C            0.06633311454539        1.38601635538413        0.09090998470117
O            0.46454868945545        2.55083213722216        0.16320669705679
N           -1.39960724927354        1.12885499384919        0.00995009792747
C           -2.41740493476555        2.28336440328732       -0.17768510150392
C           -1.85676818993753       -0.17085577036033        0.05310439806977
O           -3.03570224396508       -0.45848187169883        0.08352799501223
N           -0.92663273747348       -1.27133211345921        0.05262268626740
C           -1.39671481471814       -2.64773823005235       -0.02834549857275
H            3.84833531877820        1.08943430600834        1.08174206865023
H            4.06163820065640        1.00692984132364       -0.67407042629919
H            2.80597522156249        2.06962955662234        0.02238137645875
H            3.59427409338629       -1.72246637936179       -0.07042970848910
H           -1.88747357167219        3.23849736133445       -0.18482996129230
H           -3.00585179418693        2.23225734415640       -1.09923900999407
H           -3.09943628335929        2.29419052261139        0.67553800564432
H           -1.04523701855928       -3.22819658574410        0.83095415212213
H           -1.04583714660485       -3.14942527711725       -0.93968038987875
H           -2.48462201388221       -2.63078561062022       -0.02919867835075
H            1.35422692929618       -2.96353693608511       -0.14318693833768
