25
 energy: 56.120578356853 xtb: 6.6.1 (8d0f1dd)
C            3.45278684481906        0.92745848277359        0.18679741234421
N            2.47416523083974       -0.11487560043631        0.02625191928094
C            2.78509670435768       -1.39563086884080       -0.12441564440048
N            1.64814959789067       -2.13405938596460       -0.14810987764540
C            0.58516219773993       -1.26201693203484       -0.01925157616118
C            1.12085641253961        0.01270812190415        0.07253551785706
C            0.22368860724323        1.19049130669019        0.22666882646841
O            0.69514193305034        2.30533559489691        0.37543869361150
N           -1.07946406322976        0.88767347053696        0.22531362727259
C           -3.36081808990298        3.26494520194672       -0.40798005965652
C           -1.64647033192655       -0.27967197653813        0.21351087044902
O           -2.79158523717704       -0.61151725560278        0.34274847209789
N           -0.70939436807625       -1.49794393144497        0.01475023393666
C           -1.22612033786761       -2.83150177877754        0.01842957855559
H            3.98988371370290        0.79045425974301        1.11862209906315
H            4.16937283339464        0.87248132117507       -0.63271711672825
H            2.96377033958015        1.90122071149894        0.20596634043141
H            3.76893556983522       -1.77998696552626       -0.24940827101867
H           -2.60937570494899        4.00645409551779       -0.38996727311312
H           -3.72298155765150        2.90247306739470       -1.33573879305414
H           -3.86379769108242        2.99828118294772        0.48295252037155
H           -0.81646258715555       -3.39356497509900        0.85999519082564
H           -0.96129036051019       -3.32186031588598       -0.91780783879545
H           -2.30630282146427       -2.80446544795477        0.12903267637246
H            1.61684379228061       -3.14041101964062       -0.23943795027190
