25
 energy: -42.452882557827 xtb: 6.6.1 (8d0f1dd)
C            3.27728829686370        1.27340772517593        0.07924015940025
N            2.35212896901246        0.17628487706307       -0.00730801476158
C            2.64446211748620       -1.11290377741701       -0.06646918382313
N            1.52625497834204       -1.84968682673902       -0.12485907039374
C            0.44037971847144       -0.98794477202065       -0.11166261026146
C            0.97453291281631        0.32045530144130       -0.04261983375075
C            0.16265544845365        1.47061861549059       -0.02978189271203
O            0.53886014618070        2.64433787829343       -0.00185277741847
N           -1.20528646458197        1.11802703525592       -0.06482375836968
C           -2.16854519333826        2.21136972358602       -0.02517429663518
C           -1.75898609052893       -0.13111688525686       -0.11273144090044
O           -2.95398507168293       -0.31010981183149       -0.12926409798318
N           -0.87124970871162       -1.26873577098486       -0.14886266997154
C           -1.41054327020690       -2.50824264544625       -0.18380851931505
H            3.74199406420829        1.29860601703887        1.06711428233117
H            4.05287366278858        1.17263519213695       -0.67959715148468
H            2.71480435405816        2.19571028051462       -0.07272689380981
H            3.63778457051052       -1.51350729854213       -0.06943508966673
H           -1.61130283549543        3.14569691574462       -0.00590244045080
H           -2.80827031227326        2.17089778519066       -0.90733292227337
H           -2.79723163728719        2.12651238384937        0.86112877370622
H           -2.85947378429157       -4.78145567469933        1.09667214093158
H           -0.77212672532332       -3.36872116741996       -0.16143353936842
H           -2.47336730934870       -2.57702882270431       -0.28532406584741
H            1.47508439019300       -2.85674406069313       -0.16873968066763
