  25
        -42.11988800
 C          2.2915564994       -0.1871026022       -1.6609135563
 N          1.6638600074        0.0266438708       -0.5691173090
 C          2.0628217949       -1.6213309195        1.2326336199
 N          2.3855253588       -2.4483455684        0.3466439853
 C          1.6848856319       -0.2485528172        0.8214237077
 C          0.3996660875        0.0974956981        0.0655353129
 C         -0.2150833108        1.4904041906        0.3344528142
 O          0.3992238639        2.4585920089        0.6719771911
 N         -1.5403250026        1.3235955334        0.1238148909
 C         -2.5363427486        2.3592720369        0.2816773560
 C         -1.8691186732        0.0106057666       -0.2452881369
 O         -2.9554710463       -0.4018510096       -0.5019804444
 N         -0.6834500524       -0.7122171191       -0.2763269784
 C         -0.6647707092       -2.1287326250       -0.5572176717
 H          2.0235649113        0.5393526568        1.4901099836
 H          3.3395235784       -0.4480562369       -1.6404659195
 H          1.7804638380       -0.0732407558       -2.6071696230
 H          2.0438830181       -1.7970287336        2.3113470911
 H         -2.0704063722        3.3257815389        0.0996702874
 H         -3.3414580631        2.1771734591       -0.4283537252
 H         -2.9446222393        2.3410190652        1.2936122470
 H         -0.6186312508       -2.7079318613        0.3674759697
 H          0.1873927193       -2.3845360624       -1.1861984344
 H         -1.5951284708       -2.3667349040       -1.0722206551
 H          2.6557144731       -3.3801152126        0.6399054943
