25
 energy: -42.177971956172 gnorm: 0.007377331851 xtb: 6.6.1 (8d0f1dd)
C            3.05587658870027        1.24848607160944       -0.11419196189934
N            2.13879070176507        0.14268231377291       -0.05252880024207
C            2.43551341672918       -1.14146075506234        0.17688258115898
N            1.29626591227688       -1.87455085423268        0.17192593749309
C            0.25299997190670       -1.01978014260259       -0.07321818601456
C            0.79237530100595        0.23534327636130       -0.21969072696291
C           -0.05887419767630        1.45082962643228       -0.52444877361550
O            0.38449499185919        2.58305745770480       -0.13793871204711
N           -1.42371706595318        1.07459237845949        0.12922263245418
C           -2.11348515425178        2.06643044688514        0.64551407514833
C           -1.98110389389978       -0.22593708993914        0.09905385720301
O           -3.15859051317548       -0.41483950631615        0.26534054386672
N           -1.08563336044707       -1.27665355715272       -0.09546392638056
C           -1.59565930295830       -2.63249180867102       -0.14026941035013
H            3.75314510819555        1.20836205722709        0.72032641700375
H            3.61814652155215        1.22739957343326       -1.04965510042081
H            2.47279048050035        2.17162074987281       -0.06537555155260
H            3.41713501672078       -1.53601988612129        0.34712120991943
H           -1.65076596129147        3.04004384725193        0.63780976920508
H           -0.32438058583654        1.39038535955150       -1.61313394392700
H           -3.09113035292296        1.88160741355080        1.05508614009881
H           -1.39579009163686       -3.16013908197760        0.79479967113334
H           -1.14645997028392       -3.16970349867744       -0.97541122015398
H           -2.67442950226510       -2.58049669401255       -0.28195363441382
H            1.24291745548640       -2.87052915574829        0.33136873119590
