  25
        -42.08433065
 C          2.0972184089       -0.4711497432        1.7888628985
 N          1.8004963031       -0.4219462660        0.3666568971
 C          2.7166734379       -0.8775978116       -0.5580624451
 N          2.7257802670       -0.7488049587       -1.8000387164
 C         -0.6068134901        0.0504468369        0.1013761745
 C          0.7305178819        0.4428143687       -0.0244460292
 C          1.1254062183        1.6464690009       -0.4762490943
 O          1.5956290373        2.6115769206       -0.8640598888
 N         -1.7902503866        0.6968231962       -0.1129071866
 C         -2.2084043213        2.0545051517       -0.3157672955
 C         -2.4698625192       -0.4991987932        0.2832153431
 O         -3.5866713511       -0.8364963523        0.3838327575
 N         -1.1930144782       -1.1143930673        0.5018782930
 C         -0.7815628790       -2.4831629153        0.6381659452
 H          2.6789386561       -1.3669373065        1.9980638142
 H          2.6711710595        0.4011790124        2.1128893709
 H          1.1699547352       -0.5127059111        2.3596571434
 H          3.5145004489       -1.4594947325       -0.1108655740
 H         -1.7413200978        2.4666478711       -1.2114620512
 H         -3.2889320218        2.0454908124       -0.4516731780
 H         -1.9630575425        2.6808009456        0.5453985626
 H          0.0218993302       -2.5685236308        1.3688436936
 H         -0.4466024899       -2.8944186741       -0.3167469862
 H         -1.6441823640       -3.0489289073        0.9867415692
 H          2.0024447619       -0.2167199169       -2.2691185103
