  72
        -99.29230086
 N         -1.8821514321        2.8213985331        2.5661521100
 C         -1.7996489532        2.1736073021        1.5021979252
 C         -2.8991252490        2.0607456887        0.4822793631
 C         -3.4323670958        0.6364301460        0.4597230628
 C         -4.3002395813        0.2384860734       -0.5593718200
 C         -4.8240043407       -1.0425238243       -0.6054204218
 O         -5.6706228122       -1.5046340857       -1.5487595617
 C         -6.1661274997       -0.6183155891       -2.5244564178
 C         -4.4668471505       -1.9811977169        0.4002201185
 O         -5.0153351909       -3.2058087286        0.2707376211
 C         -4.7793191365       -4.1715868215        1.2684457258
 C         -3.6098106227       -1.5782461763        1.4117441390
 C         -3.1013172946       -0.2853681928        1.4407525002
 C         -2.2449323568        2.4051667047       -0.8810197259
 C         -1.3320635718        1.3023091599       -1.4449383486
 C         -0.0241154394        1.1876172465       -0.7604844623
 N          0.5639596489        0.0493429450       -0.4027157893
 C          1.9818338410        0.0101888399       -0.1403435269
 C          2.7567096440       -0.5039941898       -1.3774974011
 C          4.2304731026       -0.4053982799       -1.1568127514
 C          4.9066713121        0.8151633510       -1.4482267755
 C          6.1873466215        0.9591779036       -1.1037309381
 C          7.0233936711       -0.0459049908       -0.4338742979
 O          7.3094377339        0.3218728055        0.9116205607
 C          8.3249282163        1.2859318120        1.0331095199
 C          6.3033751828       -1.3843301241       -0.3701744207
 O          7.1267186817       -2.3701313664       -0.0219584984
 C          6.6312638705       -3.6852526213        0.1263382706
 C          4.9619799510       -1.4816860174       -0.6442785980
 C         -0.1294292390       -1.2158781087       -0.4378910742
 C         -4.0950173277        3.0219162088        0.7527800640
 C         -4.8238254408        2.6607637975        2.0447656552
 C         -3.6883025261        4.4924043124        0.7841359517
 H         -4.5805967088        0.9467700012       -1.3210912501
 H         -6.6923030499        0.2259253700       -2.0689830901
 H         -6.8674220668       -1.2010608401       -3.1183985967
 H         -5.3671971545       -0.2458975269       -3.1740805001
 H         -5.1271890946       -3.8294680028        2.2475274136
 H         -5.3513570307       -5.0471852951        0.9679792758
 H         -3.7186168208       -4.4356875802        1.3290239748
 H         -3.3372325617       -2.2624503012        2.1987374742
 H         -2.4608987493        0.0003198538        2.2608677722
 H         -3.0323994389        2.5974480680       -1.6087799521
 H         -1.6671667726        3.3236970214       -0.7715764248
 H         -1.8657967025        0.3536985034       -1.4567233026
 H         -1.1191136311        1.5770933405       -2.4868422467
 H         -0.8829639352        1.6463991123        1.1702944812
 H          0.5822649055        2.0795152144       -0.6972623059
 H          2.1790346701       -0.6444990589        0.7121384645
 H          2.3347505690        1.0131584786        0.1073447849
 H          2.4678812682        0.1058421397       -2.2367105603
 H          2.4745705990       -1.5396825695       -1.5737166524
 H          4.3587058308        1.6134178748       -1.9272322801
 H          7.9824016709       -0.1913300467       -0.9659003143
 H          8.0428376594        2.2217857505        0.5374390544
 H          9.2666540597        0.9246312980        0.6033586087
 H          8.4522779072        1.4583778191        2.0998966962
 H          7.4952339543       -4.2995637499        0.3717134966
 H          5.9023290780       -3.7403515311        0.9393178688
 H          6.1778128003       -4.0438274636       -0.8019277482
 H          4.4523290897       -2.4232844463       -0.4980685696
 H         -0.2430400896       -1.5837114443       -1.4606442826
 H         -1.1190466821       -1.1177803913        0.0123521474
 H          0.4378386835       -1.9477689496        0.1330615164
 H         -4.7961608020        2.8824927202       -0.0782032785
 H         -4.1681911615        2.8111431877        2.8963235383
 H         -5.1564775389        1.6256868973        2.0329870153
 H         -5.6958448391        3.2989524412        2.1609944648
 H         -2.9656293451        4.6676519275        1.5751008326
 H         -3.2696815762        4.8190478642       -0.1641157305
 H         -4.5662832561        5.1001505778        0.9865897376
 H         -1.0663301228        2.8549492681        3.1692037888
