72
 energy: -99.382397835815 gnorm: 0.005707886435 xtb: 6.6.1 (8d0f1dd)
N           -2.51139154244635        2.96284833193753        2.57612840990162
C           -2.29597590092882        2.07876339379797        1.71809528905369
C           -3.15351932208914        1.86632363942179        0.49897085086687
C           -3.78549866932408        0.48367081324901        0.55525292177277
C           -4.43609007998600       -0.01090508670095       -0.60182093214340
C           -5.03759998245273       -1.26501889214189       -0.62593793895959
O           -5.66822622079522       -1.79638933675867       -1.70106889363792
C           -5.88062507563728       -0.98971584717270       -2.83770884445129
C           -5.00335009925566       -2.08612041119581        0.50843224962106
O           -5.55170957510775       -3.29974544169623        0.39389245428471
C           -5.57120361622771       -4.17527445783718        1.49735014342380
C           -4.40423384904063       -1.60554629617857        1.78306423116468
C           -3.77296854446423       -0.26072470611535        1.68709641108590
C           -2.15555762157606        1.93889449304401       -0.70136313317859
C           -1.26691121053095        0.74322966458996       -0.78961554066896
C            0.04367034726017        0.78437550111269       -0.49027161984530
N            0.90503245212205       -0.26573830679573       -0.49056097939269
C            2.30431579165597       -0.08007474193648       -0.21717976482996
C            3.17224766869186       -0.04536522447002       -1.49381897875560
C            4.61637469870785        0.12436803455418       -1.12204179715549
C            5.23057193973955        1.36589176277099       -1.17990651494619
C            6.55274067659699        1.52495278198679       -0.79460480633127
C            7.28897228170283        0.44359075830009       -0.33111434284881
O            8.57043774518016        0.48127125586637        0.07852728169514
C            9.26668912748740        1.70585823797958        0.05191205412409
C            6.66896874811263       -0.83605777779048       -0.26856212880912
O            7.45532771513652       -1.83052828071350        0.18939730773386
C            6.93619169838130       -3.13562071617327        0.27828222623485
C            5.34769397659367       -0.97028102004970       -0.66431269798468
C            0.46200521587262       -1.56706333284902       -0.91945491647893
C           -4.28635333059984        2.91619580925851        0.33247457297395
C           -5.29309077992220        2.83825929218350        1.47846760061476
C           -3.76763580141619        4.34536212688604        0.19987992558120
H           -4.46398747773794        0.60008424132303       -1.48656457236003
H           -6.43153348117826       -0.07879718403455       -2.58575201749245
H           -6.47921083376586       -1.59581394843697       -3.51488350154380
H           -4.93871314813454       -0.72678596743887       -3.32948704815837
H           -6.12603312388208       -3.75160353223569        2.33924816999383
H           -6.07378042744909       -5.07591798489109        1.14980906318955
H           -4.55895616909974       -4.43158749110134        1.82556580284542
H           -5.20199641372383       -1.55597320052393        2.54632303557737
H           -3.32634326276820        0.11141494157658        2.59574690431772
H           -2.73191208713253        2.03565005933633       -1.62340126031511
H           -1.55136424507386        2.83947030588035       -0.58658036468612
H           -3.68557609742827       -2.33257961984723        2.18144087017373
H           -1.73955209286125       -0.17936449723620       -1.08672170350806
H           -1.43686531373413        1.39062429093200        1.74585917146609
H            0.49197401396307        1.72519028039871       -0.19730227125873
H            2.65175474990794       -0.89607032712662        0.42521249419129
H            2.44080845623759        0.85714630532782        0.32640309069363
H            2.84342213827932        0.78226216379779       -2.12334441808945
H            3.03419445926370       -0.97544913478366       -2.04764607890907
H            4.68036722126047        2.22280796704219       -1.53721626336330
H            7.00421586894217        2.50137907610969       -0.86000540859934
H            8.78564094555149        2.45429864721824        0.68886292199402
H            9.35388053068369        2.09441935298701       -0.96721509793074
H           10.25927503672091        1.48562857575484        0.44039218983684
H            7.75030193008316       -3.74848124588364        0.66044175957760
H            6.09085606161265       -3.18462779419400        0.97225284151114
H            6.62846050001049       -3.51318587833782       -0.70174501521951
H            4.87228162569182       -1.93818293277518       -0.62967050239069
H            0.12024435470328       -1.54786200430012       -1.95817441157089
H           -0.36444758329445       -1.91145276430575       -0.29228586337804
H            1.28043642304433       -2.27709443380907       -0.83394108159306
H           -4.81391448800668        2.66329766421494       -0.59496644905824
H           -4.81319315461113        3.11715772180518        2.41111804724143
H           -5.70147257228165        1.83513110504574        1.57640259345539
H           -6.11437751568007        3.52507467495873        1.29116152031911
H           -3.19805103161018        4.62188728020525        1.08168974920491
H           -3.14658596855184        4.47003249350556       -0.68318937172889
H           -4.61185682099925        5.02461182945162        0.11207750761894
H           -1.85117427137863        3.04371446648602        3.34346971085433
