72
 energy: -99.279592764099 gnorm: 0.003317036708 xtb: 6.6.1 (8d0f1dd)
N           -1.96049329486207        2.92195809693892        2.21871296637587
C           -1.90784659638595        2.18670979499382        1.20841256606490
C           -3.04773037163287        1.95952979026666        0.25463586573223
C           -3.48453560533492        0.50420364792164        0.32286761397609
C           -4.39130640722035        0.00712975557186       -0.61606305074060
C           -4.84024551503175       -1.30122692260051       -0.56668681641438
O           -5.72496249878384       -1.85557311688883       -1.42562717139683
C           -6.34523899862222       -1.04100470340470       -2.39155691281033
C           -4.36155189731556       -2.16724418371527        0.45073905090060
O           -4.84749163021384       -3.42791106647815        0.41863297266906
C           -4.49228506604918       -4.32006411444252        1.44781075761610
C           -3.46249450408540       -1.66967488060679        1.37864322137611
C           -3.03349062384360       -0.34881173609790        1.31638894777515
C           -2.48893832211720        2.28547426183474       -1.15594501633570
C           -1.54727425678880        1.21588876644283       -1.74135752348361
C           -0.22272439295392        1.16612393983414       -1.08303894506661
N            0.41020077515740        0.05005791452532       -0.70396430239068
C            1.76914108108653        0.10273246962293       -0.22496782029734
C            2.77303526616831       -0.42012320649316       -1.27300402606301
C            4.18535541470291       -0.23651481896820       -0.79583835315902
C            4.91227154114695        0.89777522299476       -1.13998182614530
C            6.21572362891970        1.08892646283928       -0.71254515234872
C            6.84072575872804        0.13476396438035        0.08952128493618
O            8.09888534852149        0.18925533356160        0.56790751445573
C            8.92365909367590        1.27596299429725        0.20020661438079
C            6.09312202973350       -0.99788479562274        0.44478828716657
O            6.76859121024261       -1.97683454679517        1.23823393962090
C            6.99515920045359       -3.25849751527932        0.48065494221752
C            4.79348137663579       -1.19030251405650        0.01320573871246
C           -0.21326539398129       -1.24809200746042       -0.79768431278297
C           -4.28942276116290        2.85163493194139        0.54992666634037
C           -4.91456271137323        2.50873779799180        1.90035004697453
C           -3.98536276123182        4.34611517303289        0.48698561876613
H           -4.76299731756845        0.66080843892125       -1.38754624531587
H           -6.88570249710576       -0.20984638584581       -1.92826449035753
H           -7.05311765511973       -1.68739132010560       -2.90676534601573
H           -5.62235989777468       -0.65024497719719       -3.11541316675053
H           -4.78758926029684       -3.93829553808004        2.42981933299148
H           -5.03744626180489       -5.23854889428259        1.23940813800755
H           -3.41743122353082       -4.52955522386232        1.44559329217017
H           -3.09579565594961       -2.29871151052061        2.17360877795499
H           -2.35935846231488        0.01133939220498        2.07820109022067
H           -3.32597282691333        2.40716697394330       -1.84289391369827
H           -1.95931088145242        3.23797039774404       -1.11042618079685
H           -2.04101771327070        0.24628735079437       -1.71971797523589
H           -1.38736886912327        1.48596591021452       -2.79385035647486
H           -0.99288177484803        1.65825677451748        0.87937472982309
H            0.34335854755358        2.08310097723964       -1.02520378613606
H            1.85087620657351       -0.49556349913536        0.68802592581969
H            2.02228713843452        1.13620510516544        0.02087263274884
H            2.62478423420704        0.13336939755229       -2.20122339893092
H            2.58112486141533       -1.47568967160804       -1.46821954910533
H            4.45987470903140        1.64677151575144       -1.77181235022472
H            6.74564736486663        1.97702472500778       -1.01360916544289
H            8.52399284530569        2.22248446218558        0.57364554328327
H            9.05063175667329        1.32883689230649       -0.88402012981124
H            9.88612134863799        1.07969623440755        0.66815216330281
H            7.49576447805105       -3.92942859009580        1.16744566851521
H            6.22077713038006       -2.23459254125467        1.99995279575527
H            7.58100529188218       -3.02227747148400       -0.39823012363019
H            4.27594385880301       -2.09759636451651        0.28630204132374
H           -0.37732813616021       -1.53361839017539       -1.83916011319260
H           -1.17476964090386       -1.24936425964568       -0.27762168547856
H            0.43091762436650       -1.98998251818488       -0.33315592916798
H           -5.02686554687550        2.62386713789067       -0.22836169304936
H           -4.21980064008756        2.74015200610845        2.70096494735568
H           -5.17882884293384        1.45541393867676        1.95435567517974
H           -5.81791230973313        3.09589705371388        2.04344468247634
H           -3.22509567796540        4.60646062877794        1.21653615478676
H           -3.65448730832715        4.65146278731021       -0.50221551571613
H           -4.88820903499830        4.90345674478019        0.72277096919150
H           -1.11307248029636        3.01963164319557        2.77013800960339
