72
 energy: -99.284798262713 gnorm: 0.003385718795 xtb: 6.6.1 (8d0f1dd)
N           -1.63470851308519        1.61915219609293        2.38547407903442
C           -1.70580345407988        1.98196154089279        1.17331354187428
C           -2.87023392261069        1.78623635024458        0.31404844826032
C           -3.86092638518864        0.53396877630864        0.58163846352933
C           -4.42515976509083       -0.11684875740933       -0.59113325438034
C           -4.58339511658674       -1.47093540615193       -0.67451762575678
O           -5.09971010123027       -2.13510872942693       -1.73351385634122
C           -5.58509529551303       -1.39915284631601       -2.83207459378548
C           -4.20919889857953       -2.30869158640859        0.42465981378521
O           -4.41069842345836       -3.62312663642490        0.24628810098076
C           -4.20947279273091       -4.50847484192520        1.32524585947304
C           -3.70504073903013       -1.70475565813888        1.58249491433560
C           -3.54244128268727       -0.35103671467244        1.67894738277929
C           -2.59402282104306        2.13479673106230       -1.13608263535740
C           -1.69658149303803        1.08350273666173       -1.83114477473089
C           -0.31105626585513        1.09957110836805       -1.31722673424471
N            0.28259330237792        0.12102026521889       -0.64257930742103
C            1.67499778627345        0.24064755543956       -0.28074957527140
C            2.60575176725786       -0.37169826607397       -1.34625080872919
C            4.03982470100161       -0.17098789362142       -0.94286825180714
C            4.67769705536099        1.03358285743849       -1.19062528433344
C            5.98579236041482        1.24228722067634       -0.78157699206255
C            6.68389867317301        0.24686254324683       -0.11370578303029
O            7.95104941010137        0.33993605200384        0.33372558746687
C            8.66405741143771        1.53823624699018        0.13231781895599
C            6.04112616715040       -0.99601251274512        0.13706067094756
O            6.79521046792540       -1.91240504661674        0.77831550686013
C            6.25849352491536       -3.18822353789041        1.03277188181416
C            4.73060135953202       -1.17887770532831       -0.27473822805973
C           -0.38676173781025       -1.12306874863152       -0.34728525124649
C           -4.26142035226515        1.98172340311081        0.84975260928482
C           -4.52581192814990        2.47837797672310        2.24237374861697
C           -3.26412205165796        5.81618433224700        0.31878788091007
H           -4.77692006375067        0.50869324531048       -1.39384692284510
H           -6.39479338213943       -0.72484807016178       -2.53794684423555
H           -5.97287861540221       -2.13814156750465       -3.53038657063958
H           -4.78832590471673       -0.82608171604573       -3.32018112698913
H           -4.85507051230581       -4.25639010726951        2.17299412230718
H           -4.47700868530242       -5.49428190061456        0.94649836109441
H           -3.16348574752590       -4.51528132908342        1.65062218730274
H           -3.45661594178499       -2.31689142670828        2.43424919594574
H           -3.14944101283820        0.07988109377642        2.58155004818830
H           -3.52364841654312        2.22439884868353       -1.69466190890051
H           -2.10465649094193        3.11095734565326       -1.17561469397411
H           -2.15642142607405        0.10251024008336       -1.72019565968316
H           -1.66754321476947        1.33578143742207       -2.89647959964830
H           -0.88199612088654        2.49684849355277        0.65857401312840
H            0.28492085309719        1.97765331995346       -1.51152592485994
H            1.83909720553928       -0.25899425803140        0.67665816447884
H            1.92774299912216        1.29633885394577       -0.16031983019959
H            2.41357592022157        0.12016315468357       -2.30157911868873
H            2.38768704469474       -1.43459810179497       -1.45535996809641
H            4.16042625287889        1.82113071979089       -1.71755035818201
H            6.45664854063054        2.18820620947086       -0.99333548659533
H            8.17315068697066        2.38405472325476        0.62354135600006
H            8.78965728866528        1.75605720287241       -0.93258582777390
H            9.64059604772230        1.37602907282917        0.58461129413758
H            7.05300823036751       -3.74661365975546        1.52394367000463
H            5.39097815101155       -3.13395721166843        1.69851499843284
H            5.97799421927675       -3.69781201756259        0.10563351294839
H            4.23424266146283       -2.11859874773171       -0.08964120035078
H           -0.67466633121660       -1.64595067909812       -1.26253895728472
H           -1.28313570785719       -0.94365610776809        0.25208349998456
H            0.28324976935000       -1.76517920584070        0.21821692175491
H           -4.96289892372610        2.37568623656903        0.12153808454915
H           -3.70391594015910        2.24010222904655        2.90872210835020
H           -5.43854486448414        2.03305430022926        2.63195456383659
H           -4.65555788451242        3.55812902611111        2.21802232193461
H           -2.68289711110964        5.21493669445991        0.98378022894698
H           -2.89086287015942        6.06305634586360       -0.65248273301266
H           -4.18125278650075        6.24518456979326        0.65641187404951
H           -0.77335496655882        1.85391926082286        2.86823369484131
