  25
        -42.00621282
 C          3.5381599221        0.9508008443        0.3038977518
 N          2.2731281017        0.3075714352        0.0306235068
 C          2.1284515527       -0.6579587101       -0.8552654014
 N          1.0214415797       -1.3831869107       -0.9800951219
 C          0.1839077101       -1.9013466846        0.0491595950
 C          1.1838198791        0.7170328926        0.8069321829
 C          0.0042657818        1.1214013586        0.2406085711
 O          0.6893088497        2.2011494746        0.4657482712
 N         -1.2305805086        0.9070452847       -0.1597270366
 C         -2.0887322793        2.0302660804       -0.5311356119
 C         -1.7877562153       -0.3668873911       -0.2293053299
 O         -2.8760573946       -0.5756923229       -0.6675064852
 N         -0.9814868946       -1.4347146458        0.3380780025
 C         -1.7541319632       -2.1984596557        1.3185046481
 H          3.8728454929        0.6861105150        1.3083752310
 H          4.2844898075        0.6382160536       -0.4219852817
 H          3.4078097743        2.0327248396        0.2589563708
 H          2.9722703662       -0.8812352852       -1.4958828738
 H         -1.5182241032        2.9516666562       -0.4397318370
 H         -2.4344372575        1.8965370933       -1.5559030313
 H         -2.9550906996        2.0605698685        0.1290136560
 H         -1.9678712564       -1.5734689476        2.1857265347
 H         -1.1690402497       -3.0629333275        1.6211856477
 H         -2.6930699833       -2.5192966021        0.8683979368
 H          1.0908239801       -2.1143216496       -1.6880013172
