72
 energy: -99.608844966489 xtb: 6.6.1 (8d0f1dd)
N           -1.78318799620852        2.98175145862351        2.47410961611947
C           -1.74298816225521        2.20883616829873        1.48127424580326
C           -2.81833658478348        2.08905569013886        0.43366218712927
C           -3.41740049922030        0.69786195231380        0.49987755450675
C           -4.26726943983135        0.25571509155236       -0.51216059393222
C           -4.80291236898562       -1.01935475819443       -0.49173826133146
O           -5.63343032872614       -1.54264657119034       -1.44149334572401
C           -6.02257301891185       -0.70748275940083       -2.49946872836266
C           -4.50614957843442       -1.89123605573378        0.57183452980437
O           -5.09960757281603       -3.12405578380165        0.49814211264679
C           -4.87501413799189       -4.02544065298680        1.54754608048744
C           -3.67015452094693       -1.44702912451704        1.57808927238593
C           -3.12889420433559       -0.16745971874148        1.53309496961197
C           -2.10839265009431        2.22986116151734       -0.92962832777551
C           -1.35598975511654        0.96367476685322       -1.30747990165793
C           -0.06280147510161        0.81958733777449       -0.71259147079985
N            0.69269194486610       -0.28747264338399       -0.49988571553494
C            2.09110019918685       -0.20563944896592       -0.19486318745339
C            3.02836303949520       -0.50287704455967       -1.38683984581540
C            4.45687009086614       -0.40373823704865       -0.94378028035016
C            5.18102894496025        0.76154793187208       -1.12134858605785
C            6.49315792530634        0.86447172295883       -0.67186137003426
C            7.09951458773466       -0.19958640856600       -0.02728308700110
O            8.37423172910709       -0.21587310888035        0.46261332437227
C            9.16457698225982        0.93239373184464        0.29372810752523
C            6.36633328899707       -1.39289577772850        0.16523655339209
O            7.04564452705639       -2.38943909278666        0.80450536091078
C            6.39009245230509       -3.61308660468487        1.01642811551117
C            5.06240444494384       -1.47634154463394       -0.28953329476911
C            0.08785068020143       -1.52164607020423       -0.87984008755265
C           -3.94688650544647        3.13232453737787        0.56911554897056
C           -4.71351092290241        2.91922197937263        1.87084072961978
C           -3.44182492771752        4.57232222705384        0.50332863576426
H           -4.50600681973835        0.91920751378991       -1.32621302446436
H           -6.52129815089346        0.19775926521798       -2.13271472475363
H           -6.71974653279910       -1.29903062918926       -3.09185330324190
H           -5.16685024236021       -0.41604810173071       -3.11523813526657
H           -5.22969027035132       -3.62601543151650        2.50350807510359
H           -5.44238905601257       -4.92024897334417        1.29309522823569
H           -3.81473464832598       -4.28231759328780        1.64654121630161
H           -3.43422328622528       -2.08605812129457        2.41419724284322
H           -2.49516930328103        0.16055415887916        2.34235268383003
H           -2.85998332677908        2.47789332982525       -1.67729086821548
H           -1.43689306001173        3.09367832231107       -0.87119602716149
H           -2.66329766313473       -0.02763953054106       -2.18511682808446
H           -1.17626052413480        0.85268783087079       -2.32433066868875
H           -0.87285580324785        1.58735434387413        1.20067335533005
H            0.45355713695122        1.70741357493097       -0.38313323144881
H            2.29463852235800       -0.92776000258177        0.60498543448833
H            2.32706100123940        0.78764347698773        0.18649453505506
H            2.82775057038347        0.21938941125458       -2.18370978138706
H            2.81356180178583       -1.50433645074951       -1.76240028109835
H            4.73428792636355        1.60647990058722       -1.62637234441965
H            7.03489923408903        1.78428292246224       -0.83386563509999
H            8.73044189482817        1.80259978796256        0.79620117500994
H            9.32164496028869        1.16893354944619       -0.76506733208753
H           10.12122887255181        0.69607175209463        0.75426938212342
H            7.11627235938608       -4.24790549369103        1.52201384615292
H            5.50435147819221       -3.49651434384728        1.65216656549301
H            6.09559035391218       -4.08428784990464        0.07221194891983
H            4.49314165913101       -2.38207570769379       -0.15733745606371
H           -0.09259289995447       -1.57946971362956       -1.96369927816671
H           -0.87970900084825       -1.56532892744553       -0.38099608801205
H            0.72498113278629       -2.33377299490817       -0.54819416483152
H           -4.64654205663434        2.98162924976380       -0.26476542931823
H           -4.04822231095924        3.08986277755363        2.70546953424313
H           -5.10418173469476        1.90645821358148        1.91839801164399
H           -5.54457586850917        3.61928070453152        1.93961924855109
H           -2.73378513114555        4.75163759325483        1.30366031755724
H           -2.96297272448863        4.78317354247210       -0.45172605695175
H           -4.27747960672819        5.26096982653885        0.62852650902180
H           -0.95544470279304        2.95149552246815        3.06582433481082
