  25
        -42.17552178
 C          3.2245884819        1.1376176329        0.0363301011
 N          2.2799679549        0.0550986950       -0.0097185932
 C          2.5613538669       -1.2551015610       -0.0115579508
 N          1.4093908792       -1.9702612454       -0.0118668622
 C          0.3662862687       -1.0849899424       -0.0085415661
 C          0.9106416418        0.1956802662       -0.0078004313
 C          0.1056815127        1.3832837306       -0.0062405891
 O          0.4816158110        2.5370540795       -0.0191147245
 N         -1.2683054967        1.0436671633        0.0066112745
 C         -2.2251147796        2.1376424311       -0.0003286155
 C         -1.7600321741       -0.2130052953        0.0107209246
 O         -3.0810165246       -0.3431506686       -0.0056427472
 N         -0.9810373312       -1.3373965352        0.0172092073
 C         -1.5041918282       -2.5940895246        0.0051561502
 H          3.7107058724        1.1743129825        1.0127246268
 H          3.9863452215        1.0095032373       -0.7314749975
 H          2.6892469910        2.0723250696       -0.1257980980
 H          3.5437229441       -1.6794226446       -0.0155568292
 H         -1.6538916625        3.0638437694       -0.0059400926
 H         -2.8537789565        2.0805816714       -0.8876398332
 H         -2.8561909281        2.0901913597        0.8851975358
 H         -2.5008157140       -2.7857023270        0.3382089943
 H         -0.8474821670       -3.4175898328       -0.1387160674
 H         -3.3266534520       -1.2693527499       -0.1777542193
 H          1.3493449365       -2.9767866635       -0.0026938064
