  25
        -42.13602563
 C          3.3767147126        0.5915987929        0.0119717058
 N          2.2589964445       -0.3112506272       -0.0131808200
 C          2.3140523471       -1.6482236028       -0.0268730206
 N          1.0553678678       -2.1592345477       -0.0264636916
 C          0.1766562099       -1.1156815725       -0.0123093188
 C          0.9293531731        0.0560652354       -0.0051403469
 C          0.3322595743        1.3526765114       -0.0044319600
 O          0.8886586125        2.4322408724       -0.0005401617
 N         -1.1070488405        1.2687878016       -0.0166710977
 C         -1.7851960536        2.4273622703       -0.0374809909
 C         -1.8752302757        0.0742533859       -0.0050128422
 O         -3.0783012260        0.1065245778        0.0024024661
 N         -1.1740522786       -1.1304962281       -0.0010369373
 C         -1.9225163188       -2.3717143150        0.0025344647
 H          3.9108078299        0.5082735393        0.9600484589
 H          4.0666360765        0.3637436757       -0.8003844088
 H          3.0064898112        1.6103437391       -0.0967322184
 H          3.2120882461       -2.2312625323       -0.0366838584
 H         -1.2177434748        3.3404070638       -0.0420709433
 H         -2.8580169993        2.3998092356       -0.0513303836
 H         -2.5995288148        4.8403779766        1.7776221077
 H         -1.6511315630       -2.9762444649        0.8683355638
 H         -1.7422349629       -2.9308864289       -0.9166721852
 H         -2.9809162755       -2.1209534148        0.0616428975
 H          0.8285162029       -3.1425473150       -0.0418746412
