25
 energy: -42.107978120319 gnorm: 0.002655843214 xtb: 6.6.1 (8d0f1dd)
C            3.06445222476004        1.07241151902767       -0.18420954850931
N            2.20417791890779        0.06339591052333       -0.12601666001219
C            2.47229483748737       -1.26226842273891       -0.12830390162809
N            1.31088683730914       -1.97039690458672       -0.07830664224429
C            0.27687103476067       -1.08789749898566       -0.04357304903183
C            0.81706410335201        0.18678370051369       -0.06884512548632
C           -0.00995949383970        1.37131261895031       -0.05939962724283
O            0.38700470720792        2.51151432452693       -0.08242625863721
N           -1.36613224992147        1.03918867578273       -0.01936307315521
C           -2.32318725754664        2.13597748858836       -0.01735508416880
C           -1.93004720537812       -0.22281245328934        0.00466445514219
O           -3.11579258356444       -0.39693705447559        0.03089078426703
N           -1.04422620257158       -1.32385978896126       -0.00278995829583
C           -1.59315060334947       -2.66439851120180        0.02151949639301
H            5.44342777549132        1.86367826566298        1.41493325560532
H            4.11931952383122        0.87087535995591       -0.25303231170357
H            2.67920818036798        2.07613949447128       -0.17361700879055
H            3.44879184710385       -1.69763834284560       -0.17008591647949
H           -1.76697483988623        3.07035685632515       -0.00014585705603
H           -2.94821753448625        2.08534957447102       -0.90956953991956
H           -2.96973534136696        2.06129697021367        0.85729252875820
H           -1.27597657230829       -3.19266772226707        0.92188965054266
H           -1.28880365231479       -3.21958273166634       -0.86636619638253
H           -2.67948125554340       -2.57392601325700        0.02900546271257
H            1.24861731559798       -2.97765677313769       -0.06561825677739
