25
 energy: -42.578063262822 xtb: 6.6.1 (8d0f1dd)
C            3.23328198461532        1.21325806923855        0.06900708456667
N            2.29711226978082        0.13057252875270        0.10779513363877
C            2.60257832631178       -1.21437295680155        0.21745670000138
N            1.42377228680652       -1.91665054591487        0.07997189573799
C            0.38536712811413       -1.06572732558673       -0.01879850070881
C            0.90662673566741        0.23119134123402        0.02873563424920
C            0.11616272686313        1.39262750593151        0.00663636941952
O            0.48797679089877        2.57110323964047        0.01844723084268
N           -1.27230683771478        1.04532312176574       -0.02787832818187
C           -2.17928730915457        2.18879994733182       -0.04805265747520
C           -1.82468773207342       -0.20738105658027       -0.07808714764844
O           -3.02575859740954       -0.37392967809950       -0.05223370295481
N           -0.95145270559951       -1.35085844843972       -0.17303979621029
C           -1.49807817550130       -2.73193319483064       -0.15615964517182
H            3.75808231106669        1.31143339696776        1.02407959237496
H            3.97615845243703        1.05647670464490       -0.71910751486947
H            2.68607927017159        2.13478464262674       -0.12430459199446
H            3.57398986650463       -1.62402212049313        0.05202350080368
H           -1.55947797215082        3.08720081001481       -0.00847325235967
H           -2.76360815583186        2.19089396262066       -0.96718617912128
H           -2.85657265331581        2.17714990704246        0.80450786789523
H           -0.91117257809786       -3.33075187114156        0.53985940187921
H           -1.53874811269372       -3.41504261319130       -1.06599635678782
H           -2.52020055209835       -2.62129026644032        0.21114976254057
H            1.37635087890863       -2.91953914574334        0.10850296800186
