25
 energy: 0.000000000000 xtb: 6.6.1 (8d0f1dd)
C            3.23720163006194        1.16630919979326        0.08434469647475
N            2.29877817382611        0.07527477071623        0.03981603040599
C            2.58028210190900       -1.21425402444508        0.03006176031096
N            1.43813958087363       -1.93419271955128        0.00098261760884
C            0.39035688448383       -1.05887472636071       -0.00790371836672
C            0.93510056364412        0.21347819449412        0.01709077491437
C            0.09450143893243        1.40504303904423       -0.00410947031874
O            0.49712751527797        2.54126714362870       -0.00342325688240
N           -1.25076640035757        1.06271879480407       -0.03085478223738
C           -2.21907211982101        2.15522099834493       -0.05001256985998
C           -1.81739487048744       -0.20012725993278       -0.04692818574614
O           -2.99983886758376       -0.37846417018721       -0.07008878229737
N           -0.92618586207120       -1.30210215599479       -0.03682761578324
C           -1.46982264913417       -2.64643102187190       -0.06029820460571
H            3.71247264356769        1.21471455160235        1.06488849150277
H            4.00791497605742        1.03430808813993       -0.67357694370751
H            2.69910007168542        2.09770118228144       -0.09130154882931
H            3.56654120610678       -1.63682992603973        0.04233140067262
H           -1.67107961066214        3.09322851271934       -0.02552706933167
H           -2.82428953597071        2.09428624779827       -0.95318082946668
H           -2.87644029173232        2.07745725625962        0.81450067533302
H           -1.17061996399332       -3.19584890659852        0.83242232437030
H           -1.14560257411436       -3.17511610292205       -0.95688275822323
H           -2.55549792440841       -2.55659984320617       -0.07459039797972
H            1.38130855184625       -2.94313852034425       -0.01389874181052
25
 energy: -2.710307638016 xtb: 6.6.1 (8d0f1dd)
C            3.24324310791034        1.18814714815274        0.08322909685724
N            2.30653757228093        0.10587682880283        0.04599537749727
C            2.60065291978597       -1.22028634802994        0.04544501112321
N            1.43182032568243       -1.93214071175100        0.01992220950465
C            0.39633092350157       -1.05443340687780       -0.00509538117772
C            0.92843569502887        0.22817151059207        0.02517201089986
C            0.10472087066944        1.40421109615748        0.00282200115106
O            0.50364162411946        2.56940293689004        0.00176587979581
N           -1.25623369072607        1.05901486481040       -0.02277528569907
C           -2.21079406085385        2.16357902206530       -0.04948611031653
C           -1.81872450761069       -0.19657663091920       -0.04085370779787
O           -3.01623923174290       -0.37085627893125       -0.06449549496542
N           -0.93365903573677       -1.31094259766432       -0.05475742657144
C           -1.47380928645385       -2.66956446567459       -0.09536760521433
H            3.72601316897225        1.24013758777835        1.06257962083308
H            4.00885585509869        1.04731180044772       -0.68144181698682
H            2.69872734110187        2.11308098215550       -0.09697450986647
H            3.57991341785996       -1.64213181075582        0.05681168837489
H           -1.64805274058904        3.09520189482271       -0.02452931881763
H           -2.81149874137467        2.11396476752704       -0.95730524779828
H           -2.87490853587994        2.10236292457556        0.81195904412525
H           -1.12345742229342       -3.22791775974874        0.76790639860048
H           -1.26055057835391       -3.32816582053382       -0.99188728425567
H           -2.55864589025824       -2.55278850463548       -0.02413089759831
H            1.36989556779780       -2.93563042708376        0.01252564445001
25
 energy: 4.510838097664 xtb: 6.6.1 (8d0f1dd)
C            3.24668881032484        1.21016856904718        0.07977438404795
N            2.30919070897058        0.13398900707285        0.05802335671904
C            2.61514947196981       -1.21782029502252        0.07536482601641
N            1.42743884882757       -1.92101196373431        0.04933179253190
C            0.40009846483755       -1.05280238274487       -0.00309297363291
C            0.91846680533768        0.24102785543232        0.03456262898980
C            0.11627535528992        1.39765229995519        0.01022374093683
O            0.50031030486786        2.58030760216204        0.01050169662154
N           -1.26269002659559        1.05315874739515       -0.01515450476833
C           -2.19632263035713        2.17646922202104       -0.04826390584819
C           -1.81522993584595       -0.19740013189937       -0.04814517701016
O           -3.02016002209261       -0.36391293697018       -0.05498825062753
N           -0.94099675370467       -1.33116265201918       -0.09144831040568
C           -1.48698950336165       -2.70085430758133       -0.13445021823559
H            3.74340170575025        1.27643083993068        1.05362424170314
H            4.00720101715975        1.06414592259950       -0.69187529367137
H            2.70030192808696        2.13268163748798       -0.10606892671914
H            3.58976352766923       -1.63506026890843        0.08312002810551
H           -1.61090643148764        3.09718247472557       -0.02098536644109
H           -2.78941487815196        2.14510766746418       -0.96286067191333
H           -2.87075749869866        2.13917046625967        0.80726606774609
H           -1.03744196356649       -3.28123208092399        0.67437214159913
H           -1.43072554365301       -3.48398503761416       -1.04587485241885
H           -2.56704170274319       -2.55133862559350        0.06204962934537
H            1.36660460910278       -2.92188302636951        0.05202781347675
25
 energy: 10.013280278624 xtb: 6.6.1 (8d0f1dd)
C            3.24410513046729        1.22027967737023        0.07308666032135
N            2.30591313694031        0.14255174316255        0.07176848981375
C            2.61531083948260       -1.21310808302424        0.10567740748168
N            1.42691873430886       -1.91379035465569        0.07288535960377
C            0.39580189867122       -1.05587274302179       -0.00075950766324
C            0.91136507757819        0.24330348408743        0.04036508711448
C            0.11989463008540        1.39774946587513        0.01384519243308
O            0.49514106652201        2.58258340714718        0.01654023434715
N           -1.26734320343975        1.05263832484721       -0.01171914330952
C           -2.18442292021461        2.18910552588787       -0.04748987317462
C           -1.81666822021929       -0.19876824465019       -0.05473488436830
O           -3.02218555401340       -0.36029731629366       -0.04881850633840
N           -0.94853671747617       -1.34638457466825       -0.11842361635718
C           -1.50038456867842       -2.72439003560608       -0.15589575001460
H            3.75334809035141        1.30180557119018        1.04010436668426
H            3.99909271694314        1.07035613986745       -0.70431087684623
H            2.69933136188930        2.14364849031090       -0.11780305170960
H            3.59163685265280       -1.62623644733247        0.10854762264790
H           -1.57883603480515        3.09827499714660       -0.01665807692046
H           -2.77094278155099        2.17296330195154       -0.96672825813992
H           -2.86365096593329        2.16908481890182        0.80455285245378
H           -0.96564868069410       -3.32513570901364        0.59445630124418
H           -1.53362817521942       -3.54133708048446       -1.08448461035561
H           -2.56481680804095       -2.57437970788147        0.12774489947737
H            1.37141976232921       -2.91561604894210        0.08528557772218
25
 energy: 11.426020296289 xtb: 6.6.1 (8d0f1dd)
C            3.24007178247892        1.22185844285023        0.06691616937481
N            2.30201682910554        0.14139874156840        0.08403749223438
C            2.60996574407635       -1.20922324196345        0.12850124416103
N            1.42722709712390       -1.91001934880010        0.08624790438117
C            0.38968801795881       -1.05867470069187        0.00221466634235
C            0.90770846194847        0.24150017529414        0.04223080079330
C            0.12053912347386        1.40051467039083        0.01487509382262
O            0.49348660795263        2.58158471179228        0.01987712449187
N           -1.26972602589359        1.05470886704786       -0.01190178278950
C           -2.17832419361340        2.19718233298091       -0.04602936808090
C           -1.81994940636135       -0.19828993044031       -0.06024882028939
O           -3.02357972368701       -0.35828718674805       -0.04627118594096
N           -0.95353899687944       -1.35258386965233       -0.13419918673192
C           -1.50679406414437       -2.73618584180055       -0.16343561302286
H            3.75760380078136        1.31266653436970        1.02830455519214
H            3.98934883722528        1.06832882114016       -0.71549173621378
H            2.69566035587926        2.14559544878274       -0.12627942360657
H            3.58900141572951       -1.62008753581635        0.12210816119404
H           -1.56218643041529        3.09915704569259       -0.01135489793190
H           -2.76132250525001        2.19118086387782       -0.96701393605338
H           -2.85815139188858        2.18520484267680        0.80470102786212
H           -0.93255537990312       -3.34209872265659        0.54303025788294
H           -1.57074952071466       -3.55393668311196       -1.09626370757320
H           -2.54996588472992       -2.59925209860388        0.15782764046379
H            1.37674011768305       -2.91321373600700        0.10465141618508
25
 energy: 10.903031399779 xtb: 6.6.1 (8d0f1dd)
C            3.23685294352672        1.21880998669458        0.06566613891526
N            2.29935861973160        0.13690322264006        0.09587095576599
C            2.60369140237951       -1.20691852119673        0.14675400294028
N            1.42714861432324       -1.90881607387214        0.08978363734546
C            0.38470331447637       -1.06043901165227        0.00207331950586
C            0.90635616703967        0.23900091091605        0.04001467702414
C            0.12089667194849        1.40257178925216        0.01350088486663
O            0.49472711282837        2.57985726282711        0.02037214019812
N           -1.27031678752243        1.05621936528150       -0.01552845066463
C           -2.17708624631479        2.19953742717158       -0.04717353123180
C           -1.82308048994210       -0.19711979857925       -0.06400963937663
O           -3.02459912800209       -0.35811301230222       -0.04610357873846
N           -0.95539068796627       -1.35274426331119       -0.14587337895044
C           -1.50860545352918       -2.73933737398584       -0.16482586422360
H            3.75824795821963        1.31280341554413        1.02347964254458
H            3.98175304477581        1.06228619103414       -0.72000272979966
H            2.69150174490779        2.14198238157350       -0.12764822176582
H            3.58448163625395       -1.61733442267500        0.12585398489879
H           -1.55916280343865        3.09927305104831       -0.00953777105428
H           -2.75859208457699        2.19837503477551       -0.96833498243884
H           -2.85633837778738        2.18883042646105        0.80320730244104
H           -0.90183251789169       -3.34250170387436        0.50621981620659
H           -1.58847078391127       -3.53949734894447       -1.10291659252663
H           -2.53399278501756       -2.61183299576767        0.19427045108348
H            1.37996358342545       -2.91276733688654        0.11192168318182
25
 energy: 9.952929720134 xtb: 6.6.1 (8d0f1dd)
C            3.23622901417231        1.21591632698869        0.06765353765260
N            2.29856006323938        0.13449876986003        0.10330045174581
C            2.60039532841887       -1.20688116947141        0.15781091152708
N            1.42574381808021       -1.90948836549035        0.08742429806934
C            0.38267725066652       -1.06043661636723        0.00007594973324
C            0.90613051545584        0.23834153195737        0.03691736365114
C            0.12101008816619        1.40259926022721        0.01189192627959
O            0.49584463241008        2.57943874245382        0.01993502225967
N           -1.27015394722588        1.05641155298270       -0.01978092728141
C           -2.17824897324078        2.19870862627582       -0.04887949291944
C           -1.82465151207382       -0.19575377486080       -0.06739417245441
O           -3.02549065519216       -0.35839113372405       -0.04638377558687
N           -0.95551910379708       -1.34973409608874       -0.15297163216424
C           -1.50764463992487       -2.73726603204082       -0.16274697803272
H            3.75901866299850        1.30948435309646        1.02426335155163
H            3.97922992249064        1.05798899440473       -0.71930541911876
H            2.69010540061185        2.13849399029207       -0.12484576929157
H            3.58110249623533       -1.61829855091182        0.12054055035284
H           -1.56231173724561        3.09956212202945       -0.00999943165875
H           -2.76007956681447        2.19788549770744       -0.96969573584900
H           -2.85730903107249        2.18526911867479        0.80172486099636
H           -0.88347924292926       -3.33705867498497        0.49018484986897
H           -1.59504363745718       -3.52369375894188       -1.10101229500096
H           -2.52289316000155       -2.61523780427230        0.21729794203619
H            1.37899268196563       -2.91333030762420        0.11102850978095
25
 energy: 9.279309901668 xtb: 6.6.1 (8d0f1dd)
C            3.23664930808140        1.21437181992968        0.07028976214962
N            2.29844417665252        0.13393609867823        0.10845833494866
C            2.59933986818224       -1.20782903085416        0.16705068146571
N            1.42425024164227       -1.91067606376833        0.08426609137284
C            0.38243101664918       -1.06002005187183       -0.00246300554892
C            0.90621750093765        0.23847062151336        0.03490595281175
C            0.12072806560017        1.40182236461385        0.01095817220254
O            0.49584082700819        2.57950796575051        0.01943058285173
N           -1.27006395896715        1.05615917916405       -0.02304050552694
C           -2.17959233523199        2.19757104222712       -0.05050588052966
C           -1.82506968883999       -0.19487053647596       -0.06946399771611
O           -3.02582581263157       -0.35902654340096       -0.04688441639314
N           -0.95516720557525       -1.34685459179229       -0.15849529185067
C           -1.50608254905381       -2.73471652193618       -0.16142126923163
H            3.76035630274237        1.30724747475199        1.02653602281698
H            3.97892274064834        1.05579748468181       -0.71722453500601
H            2.69028454171781        2.13671556929419       -0.12162149691936
H            3.57914989137596       -1.62027501976160        0.11121256617393
H           -1.56563474853123        3.09994950496623       -0.01137879344116
H           -2.76229524195188        2.19565436751320       -0.97093073583138
H           -2.85858510909260        2.18119651964123        0.80049321613150
H           -0.87209193517143       -3.33228956839323        0.48260037316299
H           -1.60119423763068       -3.51396904141163       -1.09735071870328
H           -2.51573147182846       -2.61465039238589        0.23244428099746
H            1.37693448120413       -2.91419404850137        0.10916850575983
25
 energy: 8.821423134655 xtb: 6.6.1 (8d0f1dd)
C            3.23721564579565        1.21383538093478        0.07250149094118
N            2.29841918598041        0.13426408654760        0.11206069908686
C            2.59954481600079       -1.20893879382001        0.17645501551183
N            1.42321210639000       -1.91175892541517        0.08179936108817
C            0.38308801408848       -1.05967543916018       -0.00493113862269
C            0.90648854724911        0.23860338601385        0.03404858361789
C            0.12010080580782        1.40093480967669        0.01050496583525
O            0.49520282113308        2.57938873089544        0.01916414852832
N           -1.26998101802097        1.05596627485128       -0.02520888001830
C           -2.18054338635398        2.19681735167316       -0.05152474488073
C           -1.82475674771951       -0.19458864602019       -0.07085479411695
O           -3.02567258294126       -0.35981075598130       -0.04719200867321
N           -0.95468161467765       -1.34482594813484       -0.16260971087029
C           -1.50462182828791       -2.73287949660662       -0.16102917991891
H            3.76163658999481        1.30651874172942        1.02861903861055
H            3.97931237806664        1.05488374721600       -0.71524082420754
H            2.69104157499840        2.13624332807984       -0.11932324835985
H            3.57809828680131       -1.62179639215937        0.09891713631359
H           -1.56789075550349        3.10026248450136       -0.01272683034361
H           -2.76418012165883        2.19356877032453       -0.97156401301721
H           -2.85932390535433        2.17838547503279        0.79992463672607
H           -0.86804607599423       -3.32911482916618        0.48051980224897
H           -1.60549732676661       -3.50944087749366       -1.09244763973496
H           -2.51113873138186       -2.61283255631145        0.23872069157414
H            1.37518799029038       -2.91498130503575        0.10845133882869
25
 energy: 8.512011959322 xtb: 6.6.1 (8d0f1dd)
C            3.23749974897377        1.21383139270598        0.07456816670667
N            2.29818219806224        0.13494659939720        0.11526566948032
C            2.60037494971729       -1.20992693789417        0.18930965524761
N            1.42265472178623       -1.91258173700860        0.08025407732958
C            0.38414963648053       -1.05956617262407       -0.00787353262198
C            0.90685455335653        0.23840150389935        0.03373593008918
C            0.11925093995979        1.40016864556375        0.01001092460722
O            0.49439222499073        2.57890586123752        0.01897842387270
N           -1.26981154279059        1.05594093297783       -0.02676681306640
C           -2.18101897646148        2.19647193779633       -0.05238447640924
C           -1.82399860883169       -0.19488829570915       -0.07178510508313
O           -3.02516305697625       -0.36061616272732       -0.04721881184660
N           -0.95411671023993       -1.34368162521437       -0.16639574174798
C           -1.50360714672027       -2.73203729933244       -0.16205590639801
H            3.76239510910790        1.30698010491238        1.03056723130791
H            3.97968051444030        1.05429032748121       -0.71318795933363
H            2.69184151913602        2.13644771291633       -0.11786697302724
H            3.57722186247155       -1.62221167386637        0.08297662089067
H           -1.56900810092038        3.10041395603356       -0.01419647945191
H           -2.76542329183124        2.19209273390676       -0.97208328275366
H           -2.85942698281555        2.17706379668286        0.79949012129666
H           -0.86495305864063       -3.32815011676407        0.47982411385878
H           -1.61088578847948       -3.50717651634855       -1.08914862537023
H           -2.50897162355780       -2.61051853037346        0.24324582217491
H            1.37410157771859       -2.91557183547646        0.10977084639506
25
 energy: 8.229649971570 xtb: 6.6.1 (8d0f1dd)
C            3.23736417153503        1.21424699007771        0.07588568711963
N            2.29768137107887        0.13573644492850        0.11748204471863
C            2.60167400707640       -1.21046967617604        0.20652332088715
N            1.42275996637121       -1.91301670057863        0.07993217408430
C            0.38555797403530       -1.05968443828703       -0.01077245423321
C            0.90744470305421        0.23772622932849        0.03364662494199
C            0.11822490269446        1.39956278945610        0.00934280947701
O            0.49369939695057        2.57783323638061        0.01892065539510
N           -1.26930732407676        1.05598382826928       -0.02756087375812
C           -2.18091909378439        2.19634605625053       -0.05244634202231
C           -1.82274187704171       -0.19594450623228       -0.07249557206675
O           -3.02416206374404       -0.36140494992027       -0.04677894011916
N           -0.95319475854350       -1.34348411670656       -0.16874774067382
C           -1.50283632126795       -2.73215882292217       -0.16378830079649
H            3.76256453493673        1.30845372784605        1.03166554296603
H            3.97973328578477        1.05384245494667       -0.71176723223885
H            2.69247053573229        2.13713042449863       -0.11779420846279
H            3.57597855263176       -1.62072719549720        0.06194376163443
H           -1.56899362625746        3.10029975044074       -0.01491046621732
H           -2.76601821256089        2.19138038814175       -0.97175887429067
H           -2.85869504238951        2.17688888712416        0.79989031477869
H           -0.86943348131333       -3.32792400789863        0.48319842557245
H           -1.61224518236465       -3.50759231412817       -1.08510940579991
H           -2.50826769687346       -2.60817452478605        0.23922328126138
H            1.37387594627225       -2.91582135238420        0.11330966398989
25
 energy: 8.194245503019 xtb: 6.6.1 (8d0f1dd)
C            3.23670615623591        1.21464657361374        0.07616396808511
N            2.29706087613280        0.13604387736916        0.11786824696250
C            2.60262846925964       -1.21022558734704        0.22218483723051
N            1.42336549353645       -1.91273960054517        0.08139062137367
C            0.38637424926438       -1.05996570456396       -0.01274796238720
C            0.90792487563078        0.23687360687005        0.03312929970431
C            0.11773289210111        1.39956777536481        0.00839393843830
O            0.49372249160205        2.57678363634692        0.01868960305478
N           -1.26868702637982        1.05612449320402       -0.02737023221324
C           -2.18019722446167        2.19655741710507       -0.05215943388500
C           -1.82176573777974       -0.19713651506273       -0.07244139026711
O           -3.02329573764933       -0.36146825301896       -0.04605635896942
N           -0.95239988061490       -1.34443396507873       -0.16903144164102
C           -1.50313666285139       -2.73340787904516       -0.16597481721930
H            3.76178822643236        1.30988659198625        1.03169053005327
H            3.97923121899610        1.05331317240661       -0.71130039108955
H            2.69247624431276        2.13767686591476       -0.11886758433929
H            3.57394661268292       -1.61739026796288        0.04611918467456
H           -1.56775236766028        3.10002414789548       -0.01478290001973
H           -2.76527393097601        2.19206587370276       -0.97136927064727
H           -2.85756188581487        2.17811428902977        0.80028958868308
H           -0.87175512094264       -3.33007408897717        0.48562232090643
H           -1.61268315297370       -3.50916919052397       -1.08643950192649
H           -2.51072812171615       -2.60716452795348        0.23567956952070
H            1.37449371156943       -2.91547413855813        0.11835347206469
25
 energy: 8.283720859543 xtb: 6.6.1 (8d0f1dd)
C            3.23602137344637        1.21475314097467        0.07514973477824
N            2.29669879091589        0.13567063769436        0.11597149159514
C            2.60289143816429       -1.20936524680134        0.23002252578661
N            1.42404534345932       -1.91206097083636        0.08380571015886
C            0.38640636240605       -1.06013021839555       -0.01254613468512
C            0.90828064257269        0.23631888502887        0.03218200927971
C            0.11787323134853        1.40002442141122        0.00769490573544
O            0.49428926516272        2.57619727949942        0.01838384605392
N           -1.26810965339293        1.05619226086791       -0.02640342213987
C           -2.17937085885360        2.19675240054582       -0.05126039542691
C           -1.82141960039474       -0.19788972042753       -0.07194005197370
O           -3.02284008257438       -0.36095908066361       -0.04550221407159
N           -0.95180615843723       -1.34565971481811       -0.16652297050062
C           -1.50377228224004       -2.73463154430237       -0.16665562801814
H            3.76090682399829        1.31020864633646        1.03046164828935
H            3.97851213155323        1.05309531262410       -0.71228497887845
H            2.69206216374097        2.13779163628929       -0.12038148447259
H            3.57175592615463       -1.61387183480477        0.03962934920869
H           -1.56642568734159        3.09978974018776       -0.01342179584682
H           -2.76399274054313        2.19336699293621       -0.97058025937362
H           -2.85668494029493        2.17921969968408        0.80102113482078
H           -0.87718561244643       -3.33154016521844        0.48870145857823
H           -1.60750434849853       -3.51161528737019       -1.08897944852393
H           -2.51361375824861       -2.60783824436364        0.22817629540073
H            1.37519689827938       -2.91479042390627        0.12231257037294
25
 energy: 8.337883894690 xtb: 6.6.1 (8d0f1dd)
C            3.23576175034246        1.21437800865597        0.07475086174649
N            2.29657129057767        0.13508267322076        0.11522411978314
C            2.60249525767803       -1.20883031460696        0.23448424673520
N            1.42396934915138       -1.91172527250690        0.08559494883426
C            0.38593653622796       -1.06002777649571       -0.01186749403775
C            0.90837218177017        0.23629163373223        0.03110286799015
C            0.11819319183207        1.40037962089014        0.00722531635300
O            0.49470105436925        2.57627676156002        0.01798153962514
N           -1.26790789344858        1.05621505865631       -0.02621879683584
C           -2.17915299797870        2.19676616139587       -0.05107796538558
C           -1.82172205104985       -0.19775391936804       -0.07178003041726
O           -3.02298464135914       -0.36044466706284       -0.04552479124348
N           -0.95162691745345       -1.34588206082726       -0.16517486090050
C           -1.50410092823514       -2.73481847044909       -0.16620863311060
H            3.76075840625221        1.30943433497068        1.02988707890043
H            3.97801568809463        1.05273321039894       -0.71289328511826
H            2.69176312966031        2.13735511684761       -0.12053244685934
H            3.57050628410258       -1.61264091804926        0.03629987299491
H           -1.56628588601628        3.09986374330818       -0.01262150109658
H           -2.76333774123687        2.19400944398743       -0.97059065309047
H           -2.85674034869994        2.17910788342677        0.80095537334109
H           -0.87664528322429       -3.33171520022580        0.48787178207712
H           -1.60483469682027       -3.51170286431107       -1.09158568838108
H           -2.51440753539013       -2.60890384324207        0.22756802123413
H            1.37491746879015       -2.91441974173383        0.12416401300894
25
 energy: 8.395890077181 xtb: 6.6.1 (8d0f1dd)
C            3.23594976892795        1.21387148908619        0.07465827379052
N            2.29677429971125        0.13454529010690        0.11404108207758
C            2.60206632809992       -1.20869331860529        0.23588511456413
N            1.42341795284854       -1.91173119141551        0.08663162810220
C            0.38549857360882       -1.05970018783334       -0.01120831579523
C            0.90847041896783        0.23667827903351        0.02972226293465
C            0.11855645789242        1.40055864487557        0.00690743129645
O            0.49473302261182        2.57678329318208        0.01751225932952
N           -1.26794122949830        1.05624305257845       -0.02631021706608
C           -2.17940986049617        2.19667804658775       -0.05106681677686
C           -1.82224349666964       -0.19698537642877       -0.07166306145900
O           -3.02337661161405       -0.36008691261508       -0.04588016508010
N           -0.95157249327845       -1.34537157501196       -0.16405294844602
C           -1.50391678213435       -2.73402779399471       -0.16467255787671
H            3.76103447877092        1.30780629429037        1.02986110175310
H            3.97813741822608        1.05282035946984       -0.71315103308615
H            2.69183371482970        2.13688436234199       -0.11973856005597
H            3.56948188588617       -1.61311785824257        0.03555103389946
H           -1.56710700296484        3.10021708590097       -0.01209051566476
H           -2.76336043137099        2.19392284040146       -0.97075292230509
H           -2.85740347770038        2.17807783675412        0.80072965516146
H           -0.87495189776597       -3.33073483754872        0.48659869240388
H           -1.60219027006995       -3.51153917953871       -1.09322472191827
H           -2.51406274333556       -2.60968259986305        0.22837273888890
H            1.37379664445346       -2.91438744133950        0.12437445747563
