25
 energy: 0.000000000000 xtb: 6.6.1 (8d0f1dd)
C            3.23720132972391        1.16630909158653        0.08434468864950
N            2.29877796055224        0.07527476373246        0.03981602671198
C            2.58028186251803       -1.21425391179017        0.03006175752192
N            1.43813944744728       -1.93419254010258        0.00098261751768
C            0.39035684826767       -1.05887462812143       -0.00790371763344
C            0.93510047688824        0.21347817468824        0.01709077332874
C            0.09450143016486        1.40504290868848       -0.00410946993748
O            0.49712746915594        2.54126690785742       -0.00342325656480
N           -1.25076628431515        1.06271869620815       -0.03085477937476
C           -2.21907191394203        2.15522079838987       -0.05001256521996
C           -1.81739470187490       -0.20012724136556       -0.04692818139228
O           -2.99983858926755       -0.37846413507442       -0.07008877579474
N           -0.92618577614240       -1.30210203518959       -0.03682761236648
C           -1.46982251276835       -2.64643077634382       -0.06029819901142
H            3.71247229913541        1.21471443890471        1.06488839270555
H            4.00791460421487        1.03430799217987       -0.67357688121503
H            2.69909982127087        2.09770098766290       -0.09130154035862
H            3.56654087521359       -1.63682977417947        0.04233139674524
H           -1.67107945562430        3.09322822573871       -0.02552706696334
H           -2.82428927394145        2.09428605349656       -0.95318074103337
H           -2.87644002486466        2.07745706351925        0.81450059976605
H           -1.17061985538665       -3.19584861009707        0.83242224714061
H           -1.14560246782873       -3.17511580834413       -0.95688266944647
H           -2.55549768731684       -2.55659960601237       -0.07459039105944
H            1.38130842369251       -2.94313824728853       -0.01389874052104
25
 energy: -6.262697948785 xtb: 6.6.1 (8d0f1dd)
C            3.24136216281896        1.17710277360410        0.08500104869307
N            2.30512662325669        0.10486199683664        0.03840923784918
C            2.60465076996962       -1.23755307642750        0.04258000774193
N            1.42252462085842       -1.93619976410339        0.00824840454965
C            0.39992093691793       -1.05996056050804       -0.00704712326174
C            0.92006872779239        0.22703334176634        0.01759628557617
C            0.11582179573782        1.38724368214688       -0.00331920530379
O            0.49457210042963        2.56166425303847       -0.00531761263937
N           -1.26748385091535        1.05084058697634       -0.02856059211734
C           -2.21598184136734        2.15329367552861       -0.04889617488413
C           -1.81520654372015       -0.19619227047100       -0.04640606267986
O           -3.01409614524806       -0.38262342153373       -0.07044710825094
N           -0.93763312845484       -1.30445958087354       -0.04857709969215
C           -1.47155519539128       -2.64819009794832       -0.06933963167900
H            3.72022036354804        1.22657085551995        1.06690803015457
H            4.01106849715614        1.03989053539215       -0.67714617925270
H            2.69870194625878        2.10373812458669       -0.09486391572774
H            3.58177010374098       -1.64864886949148        0.05291143135103
H           -1.65406778113770        3.08564319985162       -0.02300148174337
H           -2.81992416777786        2.10303091031676       -0.95464803543955
H           -2.87514013116558        2.08462496757187        0.81579171850340
H           -1.14697462216957       -3.20648737077912        0.81003323874197
H           -1.17077591766132       -3.20126951096619       -0.96558147226548
H           -2.55638791862568       -2.55204306574000       -0.04984653613982
H            1.36917737206608       -2.94001765289812       -0.00521266748589
25
 energy: -6.056148592679 xtb: 6.6.1 (8d0f1dd)
C            3.24229621923353        1.18243179778812        0.08433631413649
N            2.30735060675862        0.10812361248387        0.04184212352183
C            2.60861935860822       -1.23610115976887        0.05430912508606
N            1.42422071427126       -1.93399289464833        0.01557912348548
C            0.40080384839599       -1.05892746352606       -0.00644011484604
C            0.92101876874309        0.22886940130229        0.01945743166516
C            0.11721061884448        1.38886761435399       -0.00191719252875
O            0.49544480029663        2.56409375424315       -0.00614872105295
N           -1.26719928963031        1.05045315350078       -0.02600007367554
C           -2.21268405270873        2.15635670816696       -0.04843131033070
C           -1.81556522122914       -0.19706892714092       -0.04659576906940
O           -3.01511862290716       -0.38148364117038       -0.06990564691607
N           -0.93725133861196       -1.30870961711902       -0.06010698903485
C           -1.47231210558673       -2.65491964238734       -0.07783025878257
H            3.72330374312230        1.23505843574100        1.06549637935405
H            4.01042406217583        1.04500865310202       -0.68002665366306
H            2.69761484080619        2.10808891157645       -0.09716092464503
H            3.58633087536986       -1.64859276677308        0.06359869088714
H           -1.64605045732035        3.08617584875239       -0.02187625532835
H           -2.81507308479663        2.11082317219725       -0.95563162040359
H           -2.87422005734255        2.09284926328457        0.81488711776899
H           -1.12615567984785       -3.21953783957193        0.78797879898962
H           -1.19958502858191       -3.22769775389871       -0.97396531555162
H           -2.55601034207987       -2.55202124478100       -0.02551677079098
H            1.36617209177685       -2.93756093185362        0.00415757621299
25
 energy: -5.717935990539 xtb: 6.6.1 (8d0f1dd)
C            3.24361154408499        1.18830316321488        0.08453605031150
N            2.30931868211132        0.11175991518564        0.04496487520506
C            2.61230278297740       -1.23308617792049        0.06688850931575
N            1.42711336609389       -1.93173771956057        0.02243444142539
C            0.40205758961433       -1.05883282475038       -0.00689090572287
C            0.92191942136859        0.22999439333806        0.02039590404312
C            0.11800243779324        1.38966739709354        0.00009934511059
O            0.49584010577612        2.56490434036416       -0.00248718966723
N           -1.26703481958982        1.04968428937026       -0.02395085668803
C           -2.20934234341761        2.15952154345260       -0.04904165269327
C           -1.81509533258271       -0.19891098382529       -0.04926023450474
O           -3.01508147543356       -0.38146221595438       -0.06628438087656
N           -0.93661846799180       -1.31396523419535       -0.07125432057319
C           -1.47475305962834       -2.66234191337148       -0.08437917634300
H            3.72981321020818        1.24419903713121        1.06338617197721
H            4.00896395321088        1.05376436042448       -0.68354347510187
H            2.69752711054858        2.11380535194643       -0.09546723026162
H            3.59077984684487       -1.64513080198347        0.07286667178609
H           -1.63775299164706        3.08661253213555       -0.02287088447350
H           -2.80861456112432        2.11759671506937       -0.95845599818616
H           -2.87531232236643        2.10418677179104        0.81159419203558
H           -1.10709694453525       -3.23270065728048        0.76828651435235
H           -1.23079467009552       -3.25124231309743       -0.98221145694796
H           -2.55755014440538       -2.55556852673659       -0.00269418128928
H            1.36659114681602       -2.93523173161175        0.01533218816772
25
 energy: -5.218706129200 xtb: 6.6.1 (8d0f1dd)
C            3.24413901509392        1.19375335298445        0.08388722745952
N            2.30970139216251        0.11623987941866        0.04890555839158
C            2.61309555186333       -1.22937012074899        0.08229969185847
N            1.42821185775594       -1.92882599193192        0.02969351813086
C            0.40169469218538       -1.05850388947338       -0.00685194192384
C            0.92130315584709        0.23162905752788        0.02169693039052
C            0.11846679658090        1.39064979405181        0.00132088353843
O            0.49575380837222        2.56646831186356       -0.00140545179371
N           -1.26721367603258        1.04862411722480       -0.02247948643689
C           -2.20576318350280        2.16230235770467       -0.04884747635372
C           -1.81498459485891       -0.20059249268802       -0.05287129482301
O           -3.01557660862245       -0.38094926968150       -0.06588059794773
N           -0.93680757599359       -1.31891866847872       -0.08313009314321
C           -1.47673452094926       -2.66972777107881       -0.09186429619447
H            3.73351217806891        1.25277350756558        1.06122444288234
H            4.00795061187020        1.05934022607202       -0.68623558256467
H            2.69776616432824        2.11900101489952       -0.09742835426527
H            3.59216599967480       -1.64076273592227        0.08492990502029
H           -1.62881344647336        3.08649537733576       -0.02188465648612
H           -2.80299243935859        2.12502424028556       -0.95983574005924
H           -2.87408887874222        2.11251763170308        0.81032016763931
H           -1.08500856928286       -3.24485708676943        0.74667759540803
H           -1.26170481877396       -3.27496804524073       -0.99045724151559
H           -2.55746917067337       -2.55704355541568        0.02236486936010
H            1.36641977733532       -2.93212518759540        0.02567941770373
25
 energy: -4.589429739442 xtb: 6.6.1 (8d0f1dd)
C            3.24446737106898        1.19910538450230        0.08305389889899
N            2.30944750177337        0.12093119228701        0.05357879848255
C            2.61269670201682       -1.22525684767756        0.09828937933001
N            1.42867761291568       -1.92578245844263        0.03695194637207
C            0.40012999259150       -1.05870426671116       -0.00682287833427
C            0.92004083347831        0.23298573890270        0.02308610993915
C            0.11862936861547        1.39128288195425        0.00245469810663
O            0.49536990388343        2.56775403910829       -0.00038462181294
N           -1.26773346486681        1.04737675973972       -0.02107748824563
C           -2.20225153768308        2.16506323975745       -0.04868070140258
C           -1.81562366413365       -0.20225407040693       -0.05611467381646
O           -3.01659394817137       -0.38045508057662       -0.06510422708615
N           -0.93778875447083       -1.32396480394731       -0.09484863783225
C           -1.47919115285385       -2.67738309178350       -0.09924130848497
H            3.73720448088886        1.26127593650990        1.05869838548167
H            4.00647188550170        1.06384456134511       -0.68924971476350
H            2.69813236758014        2.12421299262716       -0.09963392285481
H            3.59237457492491       -1.63615478200131        0.09721723896703
H           -1.61987150066439        3.08627234221204       -0.02093058829287
H           -2.79744047895663        2.13239806232883       -0.96118023921763
H           -2.87274562587300        2.12090950176269        0.80907698508096
H           -1.06264780684349       -3.25704536739980        0.72441167020499
H           -1.29397736355754       -3.29764403802095       -0.99877512910685
H           -2.55669099498867       -2.55900059530172        0.04749124025343
H            1.36644053385614       -2.92891783889887        0.03607872446102
25
 energy: -3.827405510919 xtb: 6.6.1 (8d0f1dd)
C            3.24473082210379        1.20410362659087        0.08145543451175
N            2.30877152813193        0.12556014983028        0.05896076781689
C            2.61172304064067       -1.22090451055085        0.11474923944937
N            1.42895562539904       -1.92273445755540        0.04448199659856
C            0.39828314189108       -1.05889842029252       -0.00652377279225
C            0.91842842323033        0.23432419851715        0.02457347814712
C            0.11841264098026        1.39178330604280        0.00357675552947
O            0.49443090092527        2.56897498805850        0.00116175009018
N           -1.26860870680170        1.04615647745285       -0.01978699640005
C           -2.19892972313199        2.16783691807460       -0.04838808297456
C           -1.81668884203734       -0.20396574751259       -0.05916025096663
O           -3.01787311779321       -0.38001378601013       -0.06380180884618
N           -0.93916347056778       -1.32900779145894       -0.10630953912029
C           -1.48176567990275       -2.68539688700945       -0.10706911183840
H            3.74113833252021        1.26962196166157        1.05518688879684
H            4.00420295921952        1.06659264644825       -0.69351006464026
H            2.69870275896785        2.12910757853295       -0.10294846101623
H            3.59185634903928       -1.63099893381409        0.11092993045047
H           -1.61077837209068        3.08579994302123       -0.02028323774831
H           -2.79254038481055        2.13970386510240       -0.96205643308444
H           -2.87092232080711        2.12941636806572        0.80843233303815
H           -1.04036605655069       -3.26957989335154        0.70070624144045
H           -1.32672091337119       -3.31948193389091       -1.00779802361876
H           -2.55478118067215       -2.56287059018873        0.07277574383497
H            1.36681989588531       -2.92579835862009        0.04686734827331
25
 energy: -2.965664181118 xtb: 6.6.1 (8d0f1dd)
C            3.24394302076002        1.20875864427436        0.08025422698926
N            2.30713957975939        0.12963855388976        0.06524589821696
C            2.60873563728162       -1.21683982672984        0.13017365106549
N            1.42827848319945       -1.92033380312498        0.05143853100124
C            0.39564978631287       -1.05949701649736       -0.00657724975892
C            0.91611960621333        0.23526226373575        0.02609460235782
C            0.11810684367849        1.39226550175327        0.00476998675588
O            0.49361557410823        2.57012321517873        0.00279517510926
N           -1.26965330760782        1.04538853363577       -0.01844825368101
C           -2.19566538345219        2.17096728780040       -0.04831821383408
C           -1.81802438677377       -0.20521625351153       -0.06190824045534
O           -3.01929813469173       -0.37910185171386       -0.06156880861518
N           -0.94141380445629       -1.33414953558586       -0.11733388966888
C           -1.48448782991570       -2.69412198898075       -0.11414759769197
H            3.74431361022796        1.27781336281811        1.05191083336960
H            4.00008895594948        1.06911308669446       -0.69795794492814
H            2.69802348011114        2.13359687576037       -0.10587583580604
H            3.58862997091969       -1.62595820145852        0.12099098748800
H           -1.60193380737457        3.08571611527568       -0.01936349467517
H           -2.78717098438145        2.14732635826548       -0.96343894107181
H           -2.86937175796949        2.13798409110487        0.80729629608851
H           -1.01784900014013       -3.28212123271570        0.67719250246757
H           -1.36045872460475       -3.34069830298539       -1.01596337205142
H           -2.55236076871341       -2.57249156250724        0.09814420524858
H            1.36757493777635       -2.92346459882812        0.05703938823039
25
 energy: -2.092844542924 xtb: 6.6.1 (8d0f1dd)
C            3.24249151534231        1.21268406032590        0.07800702211697
N            2.30500593987764        0.13261264954494        0.07369076451018
C            2.60573987233433       -1.21408560532244        0.14790997679131
N            1.42701764632327       -1.91849515579183        0.05866693788683
C            0.39265356520471       -1.06047759680160       -0.00695276410347
C            0.91361760896256        0.23551669837271        0.02849246120687
C            0.11775817419467        1.39269556946307        0.00666806067270
O            0.49257442078401        2.57108280231830        0.00553670237545
N           -1.27074887321788        1.04485505743389       -0.01756414011569
C           -2.19247618164427        2.17423839244242       -0.04810544438829
C           -1.81963411151603       -0.20616550592696       -0.06454795583490
O           -3.02088323993519       -0.37803979872862       -0.05964085992404
N           -0.94398016504556       -1.33901735298365       -0.12794432793040
C           -1.48730320225516       -2.70278489995667       -0.12171027467187
H            3.74752784925445        1.28699168411818        1.04701462730027
H            3.99524413246940        1.06901639760408       -0.70317898549713
H            2.69683048452115        2.13719930941798       -0.11097440335937
H            3.58374796151364       -1.62684982154649        0.10881742419055
H           -1.59338806376780        3.08579629023909       -0.01718458602003
H           -2.78131405299831        2.15547436411555       -0.96497974345934
H           -2.86814686965458        2.14602127178373        0.80595611773111
H           -0.99607974888870       -3.29477446599454        0.65241951990502
H           -1.39399315349240       -3.35974430308863       -1.02462547099485
H           -2.54966844111622       -2.58420056668880        0.12013456078122
H            1.36884997746037       -2.92171860030233        0.06881340022511
25
 energy: -1.191360876098 xtb: 6.6.1 (8d0f1dd)
C            3.24057251863226        1.21536442310752        0.07517313463302
N            2.30286177426129        0.13372450357914        0.08224842067211
C            2.60357760145033       -1.21289089350429        0.16550252181290
N            1.42579071968595       -1.91720796104087        0.06508399807414
C            0.38976290160207       -1.06162250672226       -0.00792107033104
C            0.91116625606841        0.23527986273820        0.03074368935365
C            0.11757637798295        1.39317075296066        0.00846079557980
O            0.49147828408024        2.57193323047195        0.00878659275218
N           -1.27163132299097        1.04496666914586       -0.01825021909474
C           -2.18930039963841        2.17775167073907       -0.04806209108358
C           -1.82126008985456       -0.20680401692798       -0.06731729212352
O           -3.02241194851694       -0.37695828576619       -0.05755251329132
N           -0.94653296741394       -1.34357964765018       -0.13850225471927
C           -1.48900783941283       -2.71177002498097       -0.13001974963958
H            3.75023535185882        1.29519750805554        1.04157657472735
H            3.99044425698515        1.06767011876549       -0.70834337400353
H            2.69534421289685        2.13942230268905       -0.11635191221251
H            3.58050277706165       -1.62726304725363        0.09438663526388
H           -1.58479424068393        3.08598756980516       -0.01571440384111
H           -2.77642555318621        2.16369904155078       -0.96598461983696
H           -2.86590168462700        2.15414971548893        0.80525115526395
H           -0.97432356718434       -3.30703638661446        0.62649797591138
H           -1.42702334354983       -3.37734860021187       -1.03426390790744
H           -2.54379178938084       -2.59895470688203        0.14025910395030
H            1.37039140452535       -2.92043669705757        0.07958728842117
25
 energy: -0.266868296008 xtb: 6.6.1 (8d0f1dd)
C            3.23809616916195        1.21674134021182        0.07188750870780
N            2.30073959891609        0.13371864044991        0.09087332009175
C            2.60266174231556       -1.21269390319325        0.18321668483638
N            1.42497624752920       -1.91638265388516        0.07126575137793
C            0.38758331742565       -1.06289944708803       -0.01070302631349
C            0.90896658251667        0.23450800960399        0.03229471675100
C            0.11715643500278        1.39346776431376        0.00950802532585
O            0.49006766506748        2.57239235961431        0.01203334298511
N           -1.27201488504711        1.04495012003758       -0.02117513265741
C           -2.18602179021471        2.18123393891165       -0.04799440806844
C           -1.82263588240865       -0.20735203747958       -0.07043179887270
O           -3.02368235113694       -0.37592366786593       -0.05519766581908
N           -0.94871556951951       -1.34765822661537       -0.14932022074073
C           -1.49160110244614       -2.72000422773718       -0.13901690060842
H            3.75249107356454        1.30272577751902        1.03559157168547
H            3.98561842390021        1.06554943384953       -0.71318113205328
H            2.69262247786539        2.14013076701003       -0.12245893566750
H            3.57817531441329       -1.62669436713939        0.08003463732319
H           -1.57629979096018        3.08622554940252       -0.01408182673215
H           -2.77201113639943        2.17224271072341       -0.96647210931746
H           -2.86310482920585        2.16194883044463        0.80501066354404
H           -0.95439203845454       -3.31935928242122        0.59801540602468
H           -1.46238943355648       -3.39233822408736       -1.04542141713877
H           -2.53694548167784       -2.60993592981243        0.16200911778061
H            1.37206192211321       -2.91953129785633        0.09013349121500
25
 energy: 0.624438685863 xtb: 6.6.1 (8d0f1dd)
C            3.23510133917367        1.21634114227705        0.06917224850687
N            2.29880581476969        0.13245758780291        0.09933390387515
C            2.60262002565531       -1.21320779843306        0.20069387491250
N            1.42450213740159       -1.91607366896319        0.07751882631078
C            0.38620524022323       -1.06427891163423       -0.01417578342997
C            0.90725210708567        0.23309029589067        0.03212777119523
C            0.11672278469268        1.39381850272877        0.00891627192517
O            0.48846490216961        2.57269110267273        0.01530172210803
N           -1.27210725090880        1.04514291374997       -0.02428221418481
C           -2.18268855765221        2.18490277426633       -0.04758177248819
C           -1.82367044100259       -0.20741887421835       -0.07395226096728
O           -3.02466458584418       -0.37458039427037       -0.05283001792926
N           -0.95033104376809       -1.35011295224127       -0.16116917680305
C           -1.49495958537690       -2.72656172466171       -0.14804001716203
H            3.75485753127044        1.30974026892372        1.02930379719956
H            3.98032373538668        1.06180220917894       -0.71740174925918
H            2.68812134677921        2.13818396205865       -0.12581509424084
H            3.57617452907553       -1.62569620895998        0.06591080836526
H           -1.56790359016566        3.08666829797403       -0.01170614753152
H           -2.76775564179724        2.18111339435006       -0.96652123566701
H           -2.85998149954924        2.16968785645500        0.80523038013539
H           -0.93413105485841       -3.32747083310602        0.56859917970567
H           -1.49976333950775       -3.40465041956348       -1.05656695579055
H           -2.52933226575129       -2.61696833957985        0.18619796755749
H            1.37436839402770       -2.91909083240860        0.10058601038423
25
 energy: 1.447938819873 xtb: 6.6.1 (8d0f1dd)
C            3.23328198461532        1.21325806923855        0.06900708456667
N            2.29711226978082        0.13057252875270        0.10779513363877
C            2.60257832631178       -1.21437295680155        0.21745670000138
N            1.42377228680652       -1.91665054591487        0.07997189573799
C            0.38536712811413       -1.06572732558673       -0.01879850070881
C            0.90662673566741        0.23119134123402        0.02873563424920
C            0.11616272686313        1.39262750593151        0.00663636941952
O            0.48797679089877        2.57110323964047        0.01844723084268
N           -1.27230683771478        1.04532312176574       -0.02787832818187
C           -2.17928730915457        2.18879994733182       -0.04805265747520
C           -1.82468773207342       -0.20738105658027       -0.07808714764844
O           -3.02575859740954       -0.37392967809950       -0.05223370295481
N           -0.95145270559951       -1.35085844843972       -0.17303979621029
C           -1.49807817550130       -2.73193319483064       -0.15615964517182
H            3.75808231106669        1.31143339696776        1.02407959237496
H            3.97615845243703        1.05647670464490       -0.71910751486947
H            2.68607927017159        2.13478464262674       -0.12430459199446
H            3.57398986650463       -1.62402212049313        0.05202350080368
H           -1.55947797215082        3.08720081001481       -0.00847325235967
H           -2.76360815583186        2.19089396262066       -0.96718617912128
H           -2.85657265331581        2.17714990704246        0.80450786789523
H           -0.91117257809786       -3.33075187114156        0.53985940187921
H           -1.53874811269372       -3.41504261319130       -1.06599635678782
H           -2.52020055209835       -2.62129026644032        0.21114976254057
H            1.37635087890863       -2.91953914574334        0.10850296800186
25
 energy: 0.891883147249 xtb: 6.6.1 (8d0f1dd)
C            3.23428206249412        1.21084787628465        0.07461769116721
N            2.29643517922837        0.12986338773392        0.11638609739181
C            2.60243578268341       -1.21575961713050        0.23302934247895
N            1.42267761508065       -1.91819055427261        0.07499969269802
C            0.38619811941599       -1.06529954590536       -0.02341091239441
C            0.90756168681530        0.23050006587092        0.02642451359295
C            0.11506604627833        1.39184642623330        0.00465360026368
O            0.48827464769703        2.56943981182598        0.01746504208990
N           -1.27219533795639        1.04586154390152       -0.03194173924747
C           -2.18164944869196        2.18734985108971       -0.05117681455704
C           -1.82374749135882       -0.20748846115419       -0.08090025924837
O           -3.02466570713396       -0.37577411186069       -0.05247351470500
N           -0.95039192125215       -1.34707115069996       -0.18156505408478
C           -1.49728120257091       -2.72728643860701       -0.15739981362815
H            3.76130497900205        1.30608188915998        1.02863733503676
H            3.97571563791464        1.05242918256929       -0.71473595556647
H            2.68781907040462        2.13294951854374       -0.11811707098574
H            3.57145315593489       -1.62127417710900        0.03810198551741
H           -1.56543535972746        3.08801252673056       -0.00960248976209
H           -2.76572254655495        2.19076974654836       -0.97061286864338
H           -2.85911148423901        2.17006735593505        0.80115697512750
H           -0.88539075003879       -3.32689181520400        0.51513191069110
H           -1.56841017985447       -3.39452681319567       -1.07413000047086
H           -2.50898196708709       -2.61971079217645        0.23673727665334
H            1.37209195697905       -2.92091184974629        0.11126217857658
25
 energy: 8.395843094747 xtb: 6.6.1 (8d0f1dd)
C            3.23594946870606        1.21387137646677        0.07465826686395
N            2.29677408662330        0.13454527762418        0.11404107149718
C            2.60206608668787       -1.20869320646628        0.23588509267940
N            1.42341782078802       -1.91173101405072        0.08663162006477
C            0.38549853784340       -1.05970008951748       -0.01120831475536
C            0.90847033468262        0.23667825707520        0.02972226017711
C            0.11855644689310        1.40055851493586        0.00690743065560
O            0.49473297671195        2.57678305411572        0.01751225770478
N           -1.26794111186245        1.05624295458333       -0.02631021462510
C           -2.17940965829694        2.19667784278643       -0.05106681203903
C           -1.82224332760726       -0.19698535815305       -0.07166305481031
O           -3.02337633111407       -0.36008687920728       -0.04588016082347
N           -0.95157240499436       -1.34537145019235       -0.16405293322567
C           -1.50391664260538       -2.73402754033966       -0.16467254259888
H            3.76103412983322        1.30780617295595        1.02986100620562
H            3.97813704914621        1.05282026179227       -0.71315096692210
H            2.69183346508930        2.13688416408815       -0.11973854894698
H            3.56948155472015       -1.61311770858225        0.03555103060114
H           -1.56710685757327        3.10021679827196       -0.01209051454304
H           -2.76336017499455        2.19392263685576       -0.97075283224149
H           -2.85740321259890        2.17807763467847        0.80072958087212
H           -0.87495181659051       -3.33073452853295        0.48659864725869
H           -1.60219012142346       -3.51153885374845       -1.09322462049210
H           -2.51406251008822       -2.60968235774439        0.22837271770115
H            1.37379651699665       -2.91438717095122        0.12437444593653
