25
 energy: 0.000000000000 xtb: 6.6.1 (8d0f1dd)
C            3.23720132972391        1.16630909158653        0.08434468864950
N            2.29877796055224        0.07527476373246        0.03981602671198
C            2.58028186251803       -1.21425391179017        0.03006175752192
N            1.43813944744728       -1.93419254010258        0.00098261751768
C            0.39035684826767       -1.05887462812143       -0.00790371763344
C            0.93510047688824        0.21347817468824        0.01709077332874
C            0.09450143016486        1.40504290868848       -0.00410946993748
O            0.49712746915594        2.54126690785742       -0.00342325656480
N           -1.25076628431515        1.06271869620815       -0.03085477937476
C           -2.21907191394203        2.15522079838987       -0.05001256521996
C           -1.81739470187490       -0.20012724136556       -0.04692818139228
O           -2.99983858926755       -0.37846413507442       -0.07008877579474
N           -0.92618577614240       -1.30210203518959       -0.03682761236648
C           -1.46982251276835       -2.64643077634382       -0.06029819901142
H            3.71247229913541        1.21471443890471        1.06488839270555
H            4.00791460421487        1.03430799217987       -0.67357688121503
H            2.69909982127087        2.09770098766290       -0.09130154035862
H            3.56654087521359       -1.63682977417947        0.04233139674524
H           -1.67107945562430        3.09322822573871       -0.02552706696334
H           -2.82428927394145        2.09428605349656       -0.95318074103337
H           -2.87644002486466        2.07745706351925        0.81450059976605
H           -1.17061985538665       -3.19584861009707        0.83242224714061
H           -1.14560246782873       -3.17511580834413       -0.95688266944647
H           -2.55549768731684       -2.55659960601237       -0.07459039105944
H            1.38130842369251       -2.94313824728853       -0.01389874052104
25
 energy: -2.710335001231 xtb: 6.6.1 (8d0f1dd)
C            3.24324280701180        1.18814703791995        0.08322908913549
N            2.30653735828717        0.10587681897989        0.04599537322995
C            2.60065267850505       -1.22028623481537        0.04544500690696
N            1.43182019284236       -1.93214053249268        0.01992220765633
C            0.39633088673115       -1.05443330905057       -0.00509538070499
C            0.92843560889134        0.22817148942299        0.02517200856447
C            0.10472086095375        1.40421096587891        0.00282200088924
O            0.50364157739307        2.56940269850840        0.00176587963198
N           -1.25623357417641        1.05901476655812       -0.02277528358605
C           -2.21079385574289        2.16357882133481       -0.04948610572535
C           -1.81872433887479       -0.19657661268140       -0.04085370400758
O           -3.01623895190511       -0.37085624452430       -0.06449548898172
N           -0.93365894911463       -1.31094247603893       -0.05475742149121
C           -1.47380914971817       -2.66956421800026       -0.09536759636640
H            3.72601282328372        1.24013747272204        1.06257952225007
H            4.00885548316885        1.04731170328122       -0.68144175376466
H            2.69872709072190        2.11308078611007       -0.09697450086946
H            3.57991308572614       -1.64213165840367        0.05681168310407
H           -1.64805258768756        3.09520160765899       -0.02452931654187
H           -2.81149848053210        2.11396457139962       -0.95730515898232
H           -2.87490826915439        2.10236272952452        0.81195896879408
H           -1.12345731806235       -3.22791746027204        0.76790632735639
H           -1.26055046140374       -3.32816551175640       -0.99188719223129
H           -2.55864565287461       -2.55278826779528       -0.02413089535952
H            1.36989544070292       -2.93563015472462        0.01252564328792
25
 energy: 4.510792249966 xtb: 6.6.1 (8d0f1dd)
C            3.24668850910661        1.21016845677130        0.07977437664672
N            2.30919049473067        0.13398899464174        0.05802335133580
C            2.61514922934394       -1.21782018203674        0.07536481902428
N            1.42743871639400       -1.92101178550848        0.04933178795504
C            0.40009842771759       -1.05280228506897       -0.00309297334595
C            0.91846672012504        0.24102783307047        0.03456262578318
C            0.11627534450224        1.39765217028513        0.01022373998830
O            0.50031025845054        2.58030736276870        0.01050169564722
N           -1.26268990944693        1.05315864968618       -0.01515450336234
C           -2.19632242658879        2.17646902009464       -0.04826390137041
C           -1.81522976743426       -0.19740011358517       -0.04814517254339
O           -3.02015974189106       -0.36391290320741       -0.05498824552588
N           -0.94099666640176       -1.33116252851783       -0.09144830192138
C           -1.48698936540314       -2.70085405700402       -0.13445020576169
H            3.74340135844847        1.27643072150719        1.05362414395099
H            4.00720064538344        1.06414582387118       -0.69187522948122
H            2.70030167756090        2.13268143962406       -0.10606891687838
H            3.58976319462154       -1.63506011721235        0.08312002039388
H           -1.61090628203249        3.09718218737810       -0.02098536449413
H           -2.78941461935826        2.14510746844741       -0.96286058258195
H           -2.87075723235823        2.13917026779374        0.80726599285032
H           -1.03744186731568       -3.28123177650094        0.67437207903287
H           -1.43072541091451       -3.48398471438029       -1.04587475538566
H           -2.56704146458062       -2.55133838888782        0.06204962358859
H            1.36660448231323       -2.92188275528581        0.05202780864976
25
 energy: 10.013227426001 xtb: 6.6.1 (8d0f1dd)
C            3.24410482948877        1.22027956415628        0.07308665354058
N            2.30591292300448        0.14255172993702        0.07176848315528
C            2.61531059684176       -1.21310797047565        0.10567739767724
N            1.42691860192354       -1.91379017709986        0.07288535284168
C            0.39580186194989       -1.05587264506103       -0.00075950759278
C            0.91136499302442        0.24330346151445        0.04036508336953
C            0.11989461896193        1.39774933619605        0.01384519114856
O            0.49514102058428        2.58258316754270        0.01654023281260
N           -1.26734308585938        1.05263822718653       -0.01171914222225
C           -2.18442271755029        2.18910532278911       -0.04748986876865
C           -1.81666805167416       -0.19876822620906       -0.05473487929016
O           -3.02218527362393       -0.36029728286634       -0.04881850180916
N           -0.94853662947373       -1.34638444975465       -0.11842360537019
C           -1.50038442947716       -2.72438978284520       -0.15589573555105
H            3.75334774212683        1.30180545041249        1.04010427018644
H            3.99909234591910        1.07035604056296       -0.70431081150234
H            2.69933111145329        2.14364829142951       -0.11780304078018
H            3.59163651943131       -1.62623629645504        0.10854761257717
H           -1.57883588832539        3.09827470969777       -0.01665807537497
H           -2.77094252447108        2.17296310035041       -0.96672816844972
H           -2.86365070025219        2.16908461766052        0.80455277780974
H           -0.96564859110406       -3.32513540051734        0.59445624609228
H           -1.53362803293392       -3.54133675192964       -1.08448450974032
H           -2.56481657008480       -2.57437946903810        0.12774488762557
H            1.37141963509292       -2.91561577843983        0.08528556980964
25
 energy: 11.425968406246 xtb: 6.6.1 (8d0f1dd)
C            3.24007148187460        1.22185832948980        0.06691616316652
N            2.30201661553120        0.14139872844984        0.08403748443763
C            2.60996550193142       -1.20922312977528        0.12850123223906
N            1.42722696470997       -1.91001917159413        0.08624789637934
C            0.38968798180470       -1.05867460247115        0.00221466613688
C            0.90770837773395        0.24150015288847        0.04223079687525
C            0.12053911229060        1.40051454045520        0.01487509244255
O            0.49348656216840        2.58158447228045        0.01987712264773
N           -1.26972590809215        1.05470876919508       -0.01190178168529
C           -2.17832399151490        2.19718212913281       -0.04602936381043
C           -1.81994923751180       -0.19828991204355       -0.06024881469968
O           -3.02357944316819       -0.35828715350722       -0.04627118164806
N           -0.95353890841290       -1.35258374416358       -0.13419917428131
C           -1.50679392434845       -2.73618558794529       -0.16343559785979
H            3.75760345216195        1.31266641258437        1.02830445978907
H            3.98934846710524        1.06832872202376       -0.71549166983256
H            2.69566010578383        2.14559524972071       -0.12627941189074
H            3.58900108275253       -1.62008738550940        0.12210814986520
H           -1.56218628548023        3.09915675816193       -0.01135489687843
H           -2.76132224906264        2.19118066058651       -0.96701384633668
H           -2.85815112671771        2.18520463993993        0.80470095320433
H           -0.93255529338338       -3.34209841258651        0.54303020750219
H           -1.57074937498515       -3.55393635338818       -1.09626360586508
H           -2.54996564815160       -2.59925185745293        0.15782762582101
H            1.37673998995316       -2.91321346572761        0.10465140647583
25
 energy: 10.902982509048 xtb: 6.6.1 (8d0f1dd)
C            3.23685264322104        1.21880987361698        0.06566613282295
N            2.29935840640388        0.13690320993858        0.09587094687137
C            2.60369116081669       -1.20691840922238        0.14675398932488
N            1.42714848191659       -1.90881589677781        0.08978362901560
C            0.38470327878473       -1.06043891326786        0.00207331931350
C            0.90635608295061        0.23900088874225        0.04001467331170
C            0.12089666073205        1.40257165912568        0.01350088361406
O            0.49472706692905        2.57985702347555        0.02037213830805
N           -1.27031666966618        1.05621926728858       -0.01552844922395
C           -2.17708604433114        2.19953722310498       -0.04717352685518
C           -1.82308032080206       -0.19711978029106       -0.06400963343800
O           -3.02459884738869       -0.35811297907755       -0.04610357446111
N           -0.95539059932794       -1.35274413780756       -0.14587336541674
C           -1.50860531356521       -2.73933711983819       -0.16482584893154
H            3.75824760954045        1.31280329374610        1.02347954758915
H            3.98175267536049        1.06228609247836       -0.72000266299993
H            2.69150149519819        2.14198218284668       -0.12764820992299
H            3.58448130369630       -1.61733427262348        0.12585397322243
H           -1.55916265878412        3.09927276350689       -0.00953777016939
H           -2.75859182864294        2.19837483081675       -0.96833489259957
H           -2.85633811278472        2.18883022338781        0.80320722792183
H           -0.90183243422233       -3.34250139376690        0.50621976924101
H           -1.58847063653763       -3.53949702056033       -1.10291649020128
H           -2.53399254992117       -2.61183275344950        0.19427043305964
H            1.37996345539649       -2.91276706664857        0.11192167279806
25
 energy: 9.952882588154 xtb: 6.6.1 (8d0f1dd)
C            3.23622871392451        1.21591621417955        0.06765353137590
N            2.29855984998575        0.13449875738163        0.10330044216190
C            2.60039508716185       -1.20688105750053        0.15781089688585
N            1.42574368580390       -1.90948818833364        0.08742428995837
C            0.38267721516285       -1.06043651798304        0.00007594972619
C            0.90613043138772        0.23834150984474        0.03691736022606
C            0.12101007693923        1.40259913009818        0.01189192517629
O            0.49584458640708        2.57943850314109        0.01993502041016
N           -1.27015382938474        1.05641145497195       -0.01978092544619
C           -2.17824877114926        2.19870842228611       -0.04887948838454
C           -1.82465134278803       -0.19575375669934       -0.06739416620178
O           -3.02549037449605       -0.35839110047358       -0.04638377128352
N           -0.95551901514683       -1.34973397086439       -0.15297161797198
C           -1.50764450005004       -2.73726577808534       -0.16274696293353
H            3.75901831424782        1.30948423160636        1.02426325652349
H            3.97922955330941        1.05798889624763       -0.71930535238372
H            2.69010515103179        2.13849379188890       -0.12484575770875
H            3.58110216399119       -1.61829840077085        0.12054053916944
H           -1.56231159229893        3.09956183446121       -0.00999943073103
H           -2.76007931074242        2.19788529379410       -0.96969564588349
H           -2.85730876597977        2.18526891593196        0.80172478661469
H           -0.88347916096266       -3.33705836538249        0.49018480439106
H           -1.59504348947373       -3.52369343202395       -1.10101219285228
H           -2.52289292593495       -2.61523756163824        0.21729792187593
H            1.37899255402675       -2.91333003733400        0.11102849948005
25
 energy: 9.279263220988 xtb: 6.6.1 (8d0f1dd)
C            3.23664900779461        1.21437170726384        0.07028975562834
N            2.29844396340964        0.13393608625203        0.10845832488622
C            2.59933962702314       -1.20782891879534        0.16705066596724
N            1.42425010950453       -1.91067588650143        0.08426608355488
C            0.38243098116836       -1.06001995352629       -0.00246300532041
C            0.90621741686146        0.23847059938876        0.03490594957328
C            0.12072805439938        1.40182223455690        0.01095817118587
O            0.49584078100554        2.57950772643136        0.01943058104902
N           -1.27006384113436        1.05615908117671       -0.02304050338931
C           -2.17959213301583        2.19757083834295       -0.05050587584387
C           -1.82506951951540       -0.19487051839645       -0.06946399127144
O           -3.02582553190436       -0.35902651009153       -0.04688441204334
N           -0.95516711695765       -1.34685446683509       -0.15849527714594
C           -1.50608240932391       -2.73471626821724       -0.16142125425544
H            3.76035595386759        1.30724735346942        1.02653592757799
H            3.97892237149561        1.05579738672803       -0.71722446846403
H            2.69028429212113        2.13671537105601       -0.12162148563568
H            3.57914955931298       -1.62027486943726        0.11121255585596
H           -1.56563460327625        3.09994921736205       -0.01137879238547
H           -2.76229498567426        2.19565416380685       -0.97093064575129
H           -2.85858484388149        2.18119631727624        0.80049314186410
H           -0.87209185426131       -3.33228925923322        0.48260032838875
H           -1.60119408907659       -3.51396871539593       -1.09735061689431
H           -2.51573123842630       -2.61465014980633        0.23244425943196
H            1.37693435345620       -2.91419377813103        0.10916849563150
25
 energy: 8.821376524650 xtb: 6.6.1 (8d0f1dd)
C            3.23721534545632        1.21383526831871        0.07250148421471
N            2.29841897273985        0.13426407409097        0.11206068869020
C            2.59954457482268       -1.20893868165823        0.17645499914085
N            1.42321197434857       -1.91175874804781        0.08179935349907
C            0.38308797854670       -1.05967534084661       -0.00493113816519
C            0.90648846314777        0.23860336387693        0.03404858045896
C            0.12010079466522        1.40093467970208        0.01050496486063
O            0.49520277518962        2.57938849158735        0.01916414675033
N           -1.26998090019587        1.05596617688184       -0.02520887767949
C           -2.18054318404959        2.19681714785892       -0.05152474010042
C           -1.82475657842395       -0.19458862796683       -0.07085478754325
O           -3.02567230222827       -0.35981072259912       -0.04719200429487
N           -0.95468152610510       -1.34482582336585       -0.16260969578384
C           -1.50462168869353       -2.73287924305811       -0.16102916497910
H            3.76163624100125        1.30651862051446        1.02861894317831
H            3.97931200887776        1.05488364934699       -0.71524075784960
H            2.69104132533149        2.13624312988548       -0.11932323728939
H            3.57809795483589       -1.62179624169388        0.09891712713635
H           -1.56789061003920        3.10026219686814       -0.01272682916285
H           -2.76417986520634        2.19356856681168       -0.97156392287836
H           -2.85932364007468        2.17838527292860        0.79992456251142
H           -0.86804599545947       -3.32911452030071        0.48051975766776
H           -1.60549717781330       -3.50944055189807       -1.09244753838089
H           -2.51113849840580       -2.61283231390054        0.23872066942634
H            1.37518786270449       -2.91498103459237        0.10845132876689
25
 energy: 8.511964917677 xtb: 6.6.1 (8d0f1dd)
C            3.23749944860808        1.21383128009028        0.07456815978846
N            2.29818198484366        0.13494658687725        0.11526565878631
C            2.60037470846216       -1.20992682564071        0.18930963768402
N            1.42265458979652       -1.91258155956490        0.08025406988384
C            0.38414960084026       -1.05956607432064       -0.00787353189150
C            0.90685446922124        0.23840148178116        0.03373592695926
C            0.11925092889604        1.40016851566023        0.01001092367844
O            0.49439217912248        2.57890562197423        0.01897842211194
N           -1.26981142498122        1.05594083501074       -0.02676681058305
C           -2.18101877411296        2.19647173401413       -0.05238447154916
C           -1.82399843960647       -0.19488827762799       -0.07178509842312
O           -3.02516277631053       -0.36061612927041       -0.04721880746578
N           -0.95411662171979       -1.34368150055155       -0.16639572631027
C           -1.50360700722003       -2.73203704586207       -0.16205589136294
H            3.76239476004396        1.30697998365462        1.03056713569492
H            3.97968014521726        1.05429022966726       -0.71318789316615
H            2.69184126939489        2.13644751470300       -0.11786696209189
H            3.57722153058744       -1.62221152336235        0.08297661319234
H           -1.56900795535243        3.10041366838629       -0.01419647813480
H           -2.76542303526341        2.19209253053085       -0.97208319256664
H           -2.85942671752634        2.17706359470129        0.79949004712232
H           -0.86495297839283       -3.32814980798811        0.47982406934211
H           -1.61088563902624       -3.50717619096304       -1.08914852432223
H           -2.50897139078280       -2.61051828817724        0.24324579960728
H            1.37410145023349       -2.91557156497829        0.10977083621084
25
 energy: 8.229602839573 xtb: 6.6.1 (8d0f1dd)
C            3.23736387118192        1.21424687742345        0.07588568007918
N            2.29768115790676        0.13573643233527        0.11748203381899
C            2.60167376570075       -1.21046956387223        0.20652330172652
N            1.42275983437173       -1.91301652309458        0.07993216666843
C            0.38555793826437       -1.05968433997263       -0.01077245323377
C            0.90744461886416        0.23772620727295        0.03364662182036
C            0.11822489172590        1.39956265960879        0.00934280861021
O            0.49369935114659        2.57783299721683        0.01892065363970
N           -1.26930720631417        1.05598373029821       -0.02756087120110
C           -2.18091889144514        2.19634585248001       -0.05244633715649
C           -1.82274170793309       -0.19594448805313       -0.07249556534082
O           -3.02416178317119       -0.36140491639018       -0.04677893577915
N           -0.95319467010890       -1.34348399206206       -0.16874772501790
C           -1.50283618183922       -2.73215856944052       -0.16378828560069
H            3.76256418585707        1.30845360645157        1.03166544725114
H            3.97973291655684        1.05384235717427       -0.71176716620318
H            2.69247028593280        2.13713022622196       -0.11779419753419
H            3.57597822086300       -1.62072704513090        0.06194375588747
H           -1.56899348069085        3.10029946280406       -0.01491046483397
H           -2.76601795593787        2.19138018483193       -0.97175878413374
H           -2.85869477716820        2.17688868515882        0.79989024056722
H           -0.86943340064985       -3.32792369914364        0.48319838074272
H           -1.61224503278529       -3.50759198870409       -1.08510930512666
H           -2.50826746416377       -2.60817428280730        0.23922325906695
H            1.37387581880809       -2.91582108186288        0.11330965347735
25
 energy: 8.194198019626 xtb: 6.6.1 (8d0f1dd)
C            3.23670585594385        1.21464646092241        0.07616396101884
N            2.29706066301826        0.13604386474741        0.11786823602703
C            2.60262822779544       -1.21022547506587        0.22218481661686
N            1.42336536148079       -1.91273942308682        0.08139061382249
C            0.38637421341772       -1.05996560622346       -0.01274796120448
C            0.90792479139618        0.23687358489361        0.03312929663067
C            0.11773288117820        1.39956764551703        0.00839393765954
O            0.49372244579593        2.57678339728052        0.01868960132081
N           -1.26868690867477        1.05612439521990       -0.02737022967391
C           -2.18019702218939        2.19655721331494       -0.05215942904580
C           -1.82176556876168       -0.19713649677298       -0.07244138354621
O           -3.02329545715686       -0.36146821948300       -0.04605635469645
N           -0.95239979225404       -1.34443384034611       -0.16903142595878
C           -1.50313652339480       -2.73340762544763       -0.16597480182065
H            3.76178787742473        1.30988647045883        1.03169043433606
H            3.97923084981475        1.05331307468332       -0.71130032509719
H            2.69247599451274        2.13767666758740       -0.11886757331111
H            3.57394628110268       -1.61739011790617        0.04611918039576
H           -1.56775222220883        3.10002386028437       -0.01478289864822
H           -2.76527367442204        2.19206567032934       -0.97136918052649
H           -2.85756162069870        2.17811408695074        0.80028951443457
H           -0.87175504006377       -3.33007378002270        0.48562227585182
H           -1.61268300335371       -3.50916886495359       -1.08643940112983
H           -2.51072788877819       -2.60716428606843        0.23567954765504
H            1.37449358404795       -2.91547386806903        0.11835346108420
25
 energy: 8.283673720644 xtb: 6.6.1 (8d0f1dd)
C            3.23602107321784        1.21475302827345        0.07514972780607
N            2.29669857783494        0.13567062510724        0.11597148083565
C            2.60289119667569       -1.20936513459999        0.23002250444580
N            1.42404521134059       -1.91206079344097        0.08380570238361
C            0.38640632655641       -1.06013012003979       -0.01254613352113
C            0.90828055830509        0.23631886310390        0.03218200629396
C            0.11787322041260        1.40002429152108        0.00769490502153
O            0.49428921930402        2.57619704048742        0.01838384434832
N           -1.26810953574145        1.05619216287750       -0.02640341969024
C           -2.17937065665799        2.19675219673760       -0.05126039067112
C           -1.82141943140879       -0.19788970206790       -0.07194004529931
O           -3.02283980212418       -0.36095904717489       -0.04550220985003
N           -0.95180607013146       -1.34565958997177       -0.16652295505111
C           -1.50377214272448       -2.73463129059131       -0.16665561255632
H            3.76090647507243        1.31020852477916        1.03046155268615
H            3.97851176243859        1.05309521492102       -0.71228491279475
H            2.69206191397937        2.13779143795128       -0.12038147330395
H            3.57175559477764       -1.61387168507449        0.03962934553200
H           -1.56642554201323        3.09978945259840       -0.01342179460159
H           -2.76399248410802        2.19336678944208       -0.97058016932604
H           -2.85668467526012        2.17921949750249        0.80102106050440
H           -0.87718553106373       -3.33153985612796        0.48870141323795
H           -1.60750419935901       -3.51161496157287       -1.08897934749162
H           -2.51361352504293       -2.60783800241609        0.22817627423121
H            1.37519677069266       -2.91479015348060        0.12231255902514
25
 energy: 8.337836851627 xtb: 6.6.1 (8d0f1dd)
C            3.23576145013802        1.21437789598956        0.07475085481133
N            2.29657107750855        0.13508266068819        0.11522410909299
C            2.60249501622619       -1.20883020245524        0.23448422498044
N            1.42396921703970       -1.91172509514266        0.08559494089301
C            0.38593650042190       -1.06002767814946       -0.01186749293672
C            0.90837209749407        0.23629161180979        0.03110286510452
C            0.11819318086645        1.40037949096704        0.00722531568266
O            0.49470100847234        2.57627652254065        0.01798153795687
N           -1.26790777581582        1.05621496066379       -0.02621879440334
C           -2.17915279580330        2.19676595758638       -0.05107796064672
C           -1.82172188203584       -0.19775390102101       -0.07178002375772
O           -3.02298436089553       -0.36044463362185       -0.04552478701982
N           -0.95162682916431       -1.34588193596029       -0.16517484557606
C           -1.50410078868909       -2.73481821672069       -0.16620861769025
H            3.76075805734012        1.30943421348522        1.02988698335054
H            3.97801531902605        1.05273311272945       -0.71289321897812
H            2.69176287992646        2.13735491855010       -0.12053243567669
H            3.57050595284152       -1.61264076843319        0.03629986962711
H           -1.56628574070089        3.09986345571195       -0.01262149992559
H           -2.76333748486253        2.19400924043370       -0.97059056304193
H           -2.85674008365998        2.17910768125556        0.80095529903081
H           -0.87664520189172       -3.33171489111908        0.48787173681381
H           -1.60483454792843       -3.51170253850562       -1.09158558710698
H           -2.51440730211080       -2.60890360119566        0.22756800012104
H            1.37491734122936       -2.91441947134255        0.12416400148937
25
 energy: 8.395843094747 xtb: 6.6.1 (8d0f1dd)
C            3.23594946870606        1.21387137646677        0.07465826686395
N            2.29677408662330        0.13454527762418        0.11404107149718
C            2.60206608668787       -1.20869320646628        0.23588509267940
N            1.42341782078802       -1.91173101405072        0.08663162006477
C            0.38549853784340       -1.05970008951748       -0.01120831475536
C            0.90847033468262        0.23667825707520        0.02972226017711
C            0.11855644689310        1.40055851493586        0.00690743065560
O            0.49473297671195        2.57678305411572        0.01751225770478
N           -1.26794111186245        1.05624295458333       -0.02631021462510
C           -2.17940965829694        2.19667784278643       -0.05106681203903
C           -1.82224332760726       -0.19698535815305       -0.07166305481031
O           -3.02337633111407       -0.36008687920728       -0.04588016082347
N           -0.95157240499436       -1.34537145019235       -0.16405293322567
C           -1.50391664260538       -2.73402754033966       -0.16467254259888
H            3.76103412983322        1.30780617295595        1.02986100620562
H            3.97813704914621        1.05282026179227       -0.71315096692210
H            2.69183346508930        2.13688416408815       -0.11973854894698
H            3.56948155472015       -1.61311770858225        0.03555103060114
H           -1.56710685757327        3.10021679827196       -0.01209051454304
H           -2.76336017499455        2.19392263685576       -0.97075283224149
H           -2.85740321259890        2.17807763467847        0.80072958087212
H           -0.87495181659051       -3.33073452853295        0.48659864725869
H           -1.60219012142346       -3.51153885374845       -1.09322462049210
H           -2.51406251008822       -2.60968235774439        0.22837271770115
H            1.37379651699665       -2.91438717095122        0.12437444593653
