25
 energy: 0.000000000000 xtb: 6.6.1 (8d0f1dd)
C            3.23720163006194        1.16630919979326        0.08434469647475
N            2.29877817382611        0.07527477071623        0.03981603040599
C            2.58028210190900       -1.21425402444508        0.03006176031096
N            1.43813958087363       -1.93419271955128        0.00098261760884
C            0.39035688448383       -1.05887472636071       -0.00790371836672
C            0.93510056364412        0.21347819449412        0.01709077491437
C            0.09450143893243        1.40504303904423       -0.00410947031874
O            0.49712751527797        2.54126714362870       -0.00342325688240
N           -1.25076640035757        1.06271879480407       -0.03085478223738
C           -2.21907211982101        2.15522099834493       -0.05001256985998
C           -1.81739487048744       -0.20012725993278       -0.04692818574614
O           -2.99983886758376       -0.37846417018721       -0.07008878229737
N           -0.92618586207120       -1.30210215599479       -0.03682761578324
C           -1.46982264913417       -2.64643102187190       -0.06029820460571
H            3.71247264356769        1.21471455160235        1.06488849150277
H            4.00791497605742        1.03430808813993       -0.67357694370751
H            2.69910007168542        2.09770118228144       -0.09130154882931
H            3.56654120610678       -1.63682992603973        0.04233140067262
H           -1.67107961066214        3.09322851271934       -0.02552706933167
H           -2.82428953597071        2.09428624779827       -0.95318082946668
H           -2.87644029173232        2.07745725625962        0.81450067533302
H           -1.17061996399332       -3.19584890659852        0.83242232437030
H           -1.14560257411436       -3.17511610292205       -0.95688275822323
H           -2.55549792440841       -2.55659984320617       -0.07459039797972
H            1.38130855184625       -2.94313852034425       -0.01389874181052
25
 energy: -1.932944571941 xtb: 6.6.1 (8d0f1dd)
C            3.24322490927318        1.18891557657184        0.08285458394223
N            2.30624520531500        0.10697089448963        0.04677296719477
C            2.60052494674817       -1.21878961256852        0.04670600110816
N            1.43220632682066       -1.93105312268297        0.02201884652544
C            0.39630402180918       -1.05391704507132       -0.00368974713909
C            0.92823870975989        0.22903731432455        0.02653092063809
C            0.10514756655193        1.40548491142885        0.00373781462984
O            0.50450683329574        2.57043778735601        0.00215825112919
N           -1.25568151210182        1.06059024695776       -0.02184104304160
C           -2.21003208476940        2.16573167883218       -0.04950758828079
C           -1.81801037984545       -0.19547408128129       -0.03965567715787
O           -3.01556624711361       -0.36881452696096       -0.06381973063310
N           -0.93350814606247       -1.31155969934674       -0.05536930326798
C           -1.47351245918714       -2.67232221690017       -0.09934970020860
H            3.72620665646449        1.24111663115616        1.06201718533631
H            4.00864345533464        1.04732600637927       -0.68186804569135
H            2.69913911904649        2.11397427944619       -0.09770639559280
H            3.57983208425992       -1.64001930029288        0.05754253297295
H           -1.64789057377554        3.09781230207608       -0.02453573169608
H           -2.81033364150145        2.11595151320127       -0.95759096083953
H           -2.87471581031990        2.10485633326508        0.81150685142300
H           -1.11906269914692       -3.23115128282840        0.76081295315789
H           -1.27238282873596       -3.34909883204601       -0.99562166271711
H           -2.55836083557020       -2.55245131222322       -0.01994147770382
H            1.37105205138679       -2.93452584111038        0.01487205205910
25
 energy: 7.871505844246 xtb: 6.6.1 (8d0f1dd)
C            3.24683484039537        1.21165677303676        0.07885136991364
N            2.30841874769487        0.13654693761521        0.05978883030666
C            2.61479997863055       -1.21447399265714        0.07796393404303
N            1.42809263078132       -1.91833073451190        0.05436983589096
C            0.39972212701507       -1.05157320088905        0.00130781157871
C            0.91775916993635        0.24319864251762        0.03800352645289
C            0.11753002056358        1.40091224836780        0.01242850498662
O            0.50281770757575        2.58310588797139        0.01112686129023
N           -1.26144226286629        1.05700166012708       -0.01296630425276
C           -2.19486704148574        2.18143798382423       -0.04826832862573
C           -1.81393050080926       -0.19459274976680       -0.04618295974905
O           -3.01914149850016       -0.35829328999734       -0.05289448268150
N           -0.94121944871036       -1.33323665190410       -0.09215726512185
C           -1.48721591244336       -2.70765723301727       -0.14268177288813
H            3.74390782531415        1.27814727735810        1.05238670335310
H            4.00687406503514        1.06354467524135       -0.69290908811938
H            2.70162747734462        2.13459545326343       -0.10786459746601
H            3.58962769630832       -1.63031898949609        0.08370124164730
H           -1.61116626556669        3.10344738850533       -0.02115669120060
H           -2.78694446842514        2.14938733318717       -0.96353990247171
H           -2.87055500280683        2.14491697958195        0.80629121354452
H           -1.02700547593354       -3.28902138322820        0.65845456983902
H           -1.45516049022927       -3.53056003489963       -1.05315076483907
H           -2.56623690362733       -2.55159693456812        0.06906652475674
H            1.36908765274512       -2.91921544348978        0.05706512595966
25
 energy: 16.117883500987 xtb: 6.6.1 (8d0f1dd)
C            3.24450218997581        1.22286532263268        0.07120844180017
N            2.30452223333718        0.14675919394452        0.07484629861132
C            2.61448545675654       -1.20812029921680        0.11047951939950
N            1.42716826480445       -1.90927831180278        0.08144086085286
C            0.39419416637467       -1.05389540862022        0.00651211161619
C            0.90965615592099        0.24683891694511        0.04585484785911
C            0.12192597529593        1.40292004807097        0.01736394070793
O            0.49885455287050        2.58730559416354        0.01769968274726
N           -1.26587971072995        1.05854409022790       -0.00816149060584
C           -2.18171335882028        2.19729599602194       -0.04735740711749
C           -1.81564773951969       -0.19405801811759       -0.05185493798265
O           -3.02165612359251       -0.35091606810329       -0.04474449691108
N           -0.95040696402430       -1.34989400197512       -0.11900712414488
C           -1.50227639636141       -2.73606787631570       -0.16730194524932
H            3.75508885132090        1.30552889514868        1.03740415802457
H            3.99846720657662        1.06937584819961       -0.70664667287296
H            2.70186113401104        2.14710034725735       -0.12133774808408
H            3.59132191830479       -1.61931741913850        0.10955214428680
H           -1.57719657868603        3.10758183040896       -0.01686752914475
H           -2.76640369622313        2.18079951462244       -0.96781865798775
H           -2.86293460871410        2.17972271099236        0.80317222626090
H           -0.94824323605028       -3.33874090724442        0.56778280516677
H           -1.56920947070492       -3.61225585889501       -1.09632816521082
H           -2.56264544731812       -2.57987077778152        0.13666936976739
H            1.37437989313150       -2.91119475925311        0.09447366435812
25
 energy: 18.931142663961 xtb: 6.6.1 (8d0f1dd)
C            3.24110187317653        1.22437164439944        0.06533383277624
N            2.30081511296121        0.14603035272430        0.08659090052667
C            2.60894865789434       -1.20352042766194        0.13165066870402
N            1.42737289723023       -1.90464021987698        0.09430967955226
C            0.38775847258290       -1.05565578214701        0.01067617696834
C            0.90617759320036        0.24597061898129        0.04801222847524
C            0.12287804113052        1.40709854834011        0.01876850825687
O            0.49836855065142        2.58752418348740        0.02116733479588
N           -1.26776524783819        1.06212974078243       -0.00806745841151
C           -2.17600382735534        2.20620634507148       -0.04577225948813
C           -1.81906006509255       -0.19188892808527       -0.05652726347660
O           -3.02312689843045       -0.34679114201833       -0.04154009590407
N           -0.95568625140756       -1.35517645635855       -0.13180117687055
C           -1.50854816112335       -2.74846966864214       -0.17352805633893
H            3.75929555928571        1.31531190405580        1.02624341857761
H            3.98960506925327        1.06693938281522       -0.71712006806735
H            2.69923150605342        2.14919439425273       -0.12935710885330
H            3.58846629894182       -1.61267127792702        0.12055470631441
H           -1.56212300081027        3.11004405482049       -0.01168048696005
H           -2.75726185209175        2.19882194647987       -0.96786505117702
H           -2.85772046349044        2.19608927849870        0.80341941089669
H           -0.91903071731453       -3.35362605890730        0.51668029883967
H           -1.60506337991988       -3.64068208282986       -1.10792414908564
H           -2.54592439182679       -2.60568218743092        0.16161360286200
H            1.37950929227559       -2.90789956065192        0.11319630323455
25
 energy: 19.213990767009 xtb: 6.6.1 (8d0f1dd)
C            3.23893856125694        1.22120675455592        0.06574070213284
N            2.29888927324618        0.14180659694053        0.09612238124372
C            2.60316386918295       -1.20129406959586        0.14540951888378
N            1.42727687518855       -1.90323699236149        0.09540732261696
C            0.38312816125567       -1.05647654444045        0.01048850830867
C            0.90547002816127        0.24424935487415        0.04537964504503
C            0.12334207858082        1.40984758844456        0.01744407707200
O            0.50021629824270        2.58664057648766        0.02109803205078
N           -1.26783787169107        1.06442387071700       -0.01150982427815
C           -2.17568971230679        2.20811366453445       -0.04783862854533
C           -1.82218516775832       -0.18951170435533       -0.05839435502511
O           -3.02420017467832       -0.34528874691912       -0.04104050741418
N           -0.95747367319819       -1.35402305782934       -0.13835064766454
C           -1.51081898563804       -2.75014313738096       -0.17172596901928
H            3.75895277845790        1.31348912945066        1.02433468504836
H            3.98463008490865        1.06167227499838       -0.71848419173716
H            2.69665672150241        2.14581375859522       -0.12868333462404
H            3.58412697285260       -1.61056918734387        0.12143422402866
H           -1.56166903283885        3.11084024327217       -0.01171832885085
H           -2.75568746443833        2.20321275912514       -0.96997465219914
H           -2.85687534869196        2.19832771126658        0.80101220402713
H           -0.88854234014858       -3.35276219584289        0.48323492722646
H           -1.62127219366163       -3.63498703023230       -1.11740219629007
H           -2.53220528171786       -2.61515862069232        0.19735770413047
H            1.38188021186747       -2.90716439409648        0.11769259998027
25
 energy: 18.429431551726 xtb: 6.6.1 (8d0f1dd)
C            3.23873182721637        1.21881916983342        0.06743897107182
N            2.29846195079078        0.13955723025390        0.10081990322231
C            2.60032125948606       -1.20120785377932        0.15239894958124
N            1.42611888837969       -1.90394111660865        0.09258346322099
C            0.38123148371988       -1.05638205130228        0.00935800416536
C            0.90552845433227        0.24367767175067        0.04260030917798
C            0.12326607136752        1.40983985212103        0.01651364031377
O            0.50117983164895        2.58613461287272        0.02089196702376
N           -1.26739446609271        1.06459469903546       -0.01482669156392
C           -2.17668793370358        2.20726652189891       -0.04917424441657
C           -1.82390520475046       -0.18803929405994       -0.06078721879025
O           -3.02530122164574       -0.34503178708049       -0.04137617051962
N           -0.95797151537772       -1.35108392936081       -0.14107323920105
C           -1.51080331546582       -2.74740626171301       -0.16709265227635
H            3.75915365737221        1.31021582664595        1.02561106441338
H            3.98362295081903        1.05876379171559       -0.71721256411755
H            2.69603507987652        2.14308478609349       -0.12620428052518
H            3.58111823201161       -1.61171158991569        0.11515398953104
H           -1.56473390656655        3.11129726494074       -0.01245321983427
H           -2.75724731796050        2.20186889187622       -0.97091951592943
H           -2.85777055018812        2.19494956869000        0.79993697865778
H           -0.87820807704549       -3.34651525386198        0.47214605659388
H           -1.61962920160536       -3.62406730911722       -1.11508601072915
H           -2.52355794651037       -2.61790908466816        0.21160589124909
H            1.38065563782776       -2.90774575408852        0.11618051582821
25
 energy: 17.878240124098 xtb: 6.6.1 (8d0f1dd)
C            3.23897850503798        1.21786720557705        0.06926679124266
N            2.29846041554379        0.13908882233379        0.10341323417343
C            2.59966555680931       -1.20199335158985        0.15804256350621
N            1.42505521271386       -1.90503487497782        0.09028970319470
C            0.38090214227725       -1.05629916419909        0.00767896548662
C            0.90553619031303        0.24361777060080        0.04110578498282
C            0.12296229176017        1.40904793884933        0.01605711721069
O            0.50112578115831        2.58606733472555        0.02049352302392
N           -1.26728558311763        1.06421108676264       -0.01669114042040
C           -2.17743187483227        2.20648976351466       -0.05055606751766
C           -1.82451261408713       -0.18743506322149       -0.06147488354304
O           -3.02591621068882       -0.34525863024972       -0.04190809847244
N           -0.95821008238924       -1.34925946527213       -0.14350193749640
C           -1.51064955115055       -2.74530527761818       -0.16529478418787
H            3.75939257358544        1.30869621538013        1.02763468625357
H            3.98395273921866        1.05756601158242       -0.71528486919066
H            2.69615008468776        2.14194037737319       -0.12423049374493
H            3.57972015064619       -1.61341137429182        0.10906446614605
H           -1.56674725573491        3.11157019637920       -0.01407044791169
H           -2.75860556025186        2.19996636875629       -0.97208379404920
H           -2.85858400392580        2.19254309079098        0.79881954750553
H           -0.86789802819132       -3.34407448905822        0.46624644379529
H           -1.62177103122636       -3.61551994650476       -1.11521022898458
H           -2.52106018150555       -2.61748048505293        0.22389496296078
H            1.37898500128590       -2.90857145841802        0.11533285218388
25
 energy: 17.382558404879 xtb: 6.6.1 (8d0f1dd)
C            3.23920985988349        1.21776528013220        0.07017247799024
N            2.29851325604991        0.13936046972789        0.10491114831697
C            2.60000801085890       -1.20276367909869        0.16398173596210
N            1.42445313961823       -1.90602569014556        0.08882651895602
C            0.38137637915419       -1.05637721074416        0.00633564267163
C            0.90561841593236        0.24353438629631        0.04049679177400
C            0.12244116323577        1.40802098919879        0.01600721695410
O            0.50057100757571        2.58577549000009        0.02050783589622
N           -1.26724468789651        1.06370102164422       -0.01764288099284
C           -2.17780301800455        2.20597451541719       -0.05088439411666
C           -1.82437392009508       -0.18750668576761       -0.06218618425824
O           -3.02594130371613       -0.34596877704793       -0.04236826900563
N           -0.95810548957532       -1.34826978986208       -0.14574269007717
C           -1.51002107860925       -2.74404880167738       -0.16458148429391
H            3.75993845439753        1.30861967620557        1.02862736214077
H            3.98429194907024        1.05732810990705       -0.71438925685668
H            2.69634688954077        2.14174249912765       -0.12343654739925
H            3.57917004555531       -1.61464925901865        0.10154990344395
H           -1.56768120225113        3.11161892999898       -0.01476331672456
H           -2.75967110743642        2.19864899500239       -0.97216794043029
H           -2.85881678656892        2.19099655916651        0.79884220791950
H           -0.86763025835019       -3.34152309758605        0.46573496368249
H           -1.62122029734791       -3.61110845309239       -1.11206419014968
H           -2.51905467425108       -2.61651229400196        0.22571233452045
H            1.37783992116629       -2.90930458161039        0.11555491022373
25
 energy: 16.856004215592 xtb: 6.6.1 (8d0f1dd)
C            3.23916744232911        1.21793470725718        0.07103904306737
N            2.29828591884544        0.13995234297453        0.10675456638563
C            2.60077203103070       -1.20354489058741        0.17481974270856
N            1.42400768628838       -1.90690995886658        0.08786842060823
C            0.38218741064536       -1.05665291784709        0.00429542341362
C            0.90567405513932        0.24316475965662        0.04009312197991
C            0.12166641808484        1.40699867538303        0.01576213184597
O            0.49985606134985        2.58516257594196        0.02053880226779
N           -1.26727183222098        1.06341869085599       -0.01839068033834
C           -2.17794766804161        2.20584129300240       -0.05107150520353
C           -1.82381399864827       -0.18793470601013       -0.06297881369113
O           -3.02564062045490       -0.34686040602664       -0.04249501064050
N           -0.95792674183268       -1.34770121447849       -0.14914565239310
C           -1.50941696701204       -2.74364139121193       -0.16532784373455
H            3.76036984588132        1.30943982300808        1.02936869735733
H            3.98432763325942        1.05707286357132       -0.71357799134950
H            2.69647478788819        2.14190249718875       -0.12314106352806
H            3.57864145365934       -1.61534279755164        0.09004241479541
H           -1.56783029237613        3.11153574153596       -0.01543045620189
H           -2.76034735738859        2.19791461723936       -0.97214049463347
H           -2.85862948276191        2.19047410151410        0.79900978282645
H           -0.86678175227453       -3.34064981325742        0.46538428685866
H           -1.62292966195981       -3.60695964477961       -1.10874944922906
H           -2.51775100151938       -2.61564504306373        0.22669919163752
H            1.37707130002578       -2.90994130327657        0.11780723133797
25
 energy: 16.385397774819 xtb: 6.6.1 (8d0f1dd)
C            3.23874536050607        1.21813038339872        0.07155515771093
N            2.29774578474472        0.14039391753911        0.10836680078655
C            2.60148545679039       -1.20375841183713        0.18919083514421
N            1.42406802633424       -1.90721677172454        0.08774042808654
C            0.38298139405071       -1.05706247987018        0.00203810526091
C            0.90581711038569        0.24242816074336        0.03962090287331
C            0.12092996716545        1.40648057699247        0.01513286501680
O            0.49944678254352        2.58420558261691        0.02050287436223
N           -1.26716012957638        1.06341427067616       -0.01877098168858
C           -2.17778670752589        2.20591340559154       -0.05095325292258
C           -1.82295805103285       -0.18882674273095       -0.06370597535686
O           -3.02493060506319       -0.34772277631977       -0.04209731332941
N           -0.95738784535252       -1.34782578821092       -0.15250715274510
C           -1.50891671621277       -2.74447879148944       -0.16756632637781
H            3.76047598307932        1.31059394144580        1.02944760011949
H            3.98375530080020        1.05662213867350       -0.71325105886695
H            2.69641620860005        2.14219058200560       -0.12340913321838
H            3.57781854932367       -1.61449055445257        0.07644780919636
H           -1.56725809722824        3.11120654299349       -0.01548051065495
H           -2.76033712057097        2.19810893384966       -0.97188702996480
H           -2.85806612446820        2.19085933675642        0.79932419222844
H           -0.86767517213790       -3.34087601573890        0.46574287407489
H           -1.62515163187708       -3.60417482647118       -1.10589594232006
H           -2.51712508886635       -2.61497818276631        0.22588677739330
H            1.37728203352451       -2.91010782949886        0.12156135133880
25
 energy: 16.237849653267 xtb: 6.6.1 (8d0f1dd)
C            3.23834201173740        1.21809171806716        0.07149963251176
N            2.29730838342426        0.14032350586051        0.10848899173795
C            2.60158361647412       -1.20332676770790        0.19802461652212
N            1.42439536953143       -1.90680019163714        0.08846992865026
C            0.38313433725479       -1.05718783530639        0.00101486610318
C            0.90599204869870        0.24194287769680        0.03902151652912
C            0.12080606274576        1.40677649894047        0.01445324973627
O            0.49964563283220        2.58368175392902        0.02030019722712
N           -1.26693000712985        1.06359329505729       -0.01867997649830
C           -2.17748238944991        2.20600537877389       -0.05069739704606
C           -1.82251853553998       -0.18947956450322       -0.06390431620627
O           -3.02444252671474       -0.34779937128666       -0.04141809175626
N           -0.95685312118549       -1.34835116921899       -0.15326438513469
C           -1.50893680826146       -2.74578672145398       -0.16938605343272
H            3.76029001056010        1.31088379089401        1.02900633904548
H            3.98309950860141        1.05620665711975       -0.71350357589694
H            2.69635348413589        2.14229552077443       -0.12380447645591
H            3.57672753265124       -1.61263075238016        0.06929191317521
H           -1.56662983468966        3.11095850898178       -0.01491336869137
H           -2.75974778748616        2.19888169196102       -0.97167557166112
H           -2.85766557169673        2.19146953804633        0.79947820291800
H           -0.86881729795479       -3.34204317066024        0.46654202041634
H           -1.62593422873351       -3.60392634026066       -1.10535110432076
H           -2.51742200934305       -2.61505031247284        0.22391747556312
H            1.37791678747431       -2.90969993704230        0.12412326311175
25
 energy: 16.290795864326 xtb: 6.6.1 (8d0f1dd)
C            3.23817803469617        1.21792972378032        0.07130838775491
N            2.29715827936215        0.14000392751142        0.10774760254531
C            2.60137446117840       -1.20277479240635        0.20189611009604
N            1.42466114585309       -1.90624095282963        0.08943607195637
C            0.38295082889941       -1.05705012779668        0.00082989450227
C            0.90618647630342        0.24184771904320        0.03833337035131
C            0.12105660865103        1.40730833147139        0.01395894236372
O            0.49997645590790        2.58364949005827        0.02007658360812
N           -1.26669824565545        1.06368747231391       -0.01850227185025
C           -2.17726187106035        2.20595344236216       -0.05051740573686
C           -1.82248213537991       -0.18975698597240       -0.06382249214241
O           -3.02427296547292       -0.34748215776338       -0.04100690417088
N           -0.95642161451479       -1.34878628892991       -0.15248600750948
C           -1.50916719573550       -2.74673613096483       -0.17022692905385
H            3.76011260147519        1.31045408101674        1.02864850849691
H            3.98276136101798        1.05604099488926       -0.71382887314518
H            2.69637293576941        2.14224185735348       -0.12390240545418
H            3.57588752702649       -1.61106168206261        0.06673143807228
H           -1.56639015667638        3.11086601694045       -0.01426622418111
H           -2.75917170266383        2.19948019346777       -0.97161893366596
H           -2.85759462038305        2.19163601735192        0.79944750805665
H           -0.86979867750810       -3.34283626417518        0.46724400760102
H           -1.62549958671706       -3.60490724264937       -1.10619227002900
H           -2.51798358446728       -2.61524183032756        0.22264625155047
H            1.37828030803019       -2.90919620951033        0.12509993613103
25
 energy: 16.379715170795 xtb: 6.6.1 (8d0f1dd)
C            3.23822602170143        1.21773687795056        0.07124483633457
N            2.29722785758961        0.13965035606319        0.10668247991649
C            2.60110886302811       -1.20242601306484        0.20479211165082
N            1.42463652590606       -1.90587609189958        0.09045819530877
C            0.38269241588295       -1.05674705123871        0.00082186106105
C            0.90639629920787        0.24203032786624        0.03744209558521
C            0.12140400653522        1.40773965071269        0.01359809500401
O            0.50016098112971        2.58393174856290        0.01984684111480
N           -1.26651902064595        1.06367495410785       -0.01847357186466
C           -2.17718502306271        2.20581476082630       -0.05046892575964
C           -1.82269600838939       -0.18969026539319       -0.06368461219676
O           -3.02436382148414       -0.34705508500701       -0.04090000121286
N           -0.95611937778115       -1.34889552462781       -0.15121514268567
C           -1.50942950647074       -2.74710731158037       -0.17014922199762
H            3.76002817773934        1.30967258421804        1.02862734982898
H            3.98280198785755        1.05611152229389       -0.71394342656564
H            2.69647316587784        2.14209958957804       -0.12367086436775
H            3.57531493910301       -1.61028802243005        0.06455099080272
H           -1.56655015498887        3.11093924869238       -0.01382870987433
H           -2.75885265870074        2.19968053609422       -0.97168821236633
H           -2.85776366053735        2.19132871760648        0.79931299492941
H           -0.87013159710492       -3.34316166911578        0.46767149595122
H           -1.62431257214433       -3.60583739382633       -1.10730029396054
H           -2.51833084611708       -2.61543142075599        0.22203149936388
H            1.37799767380486       -2.90886642346112        0.12527603214714
25
 energy: 16.445071608346 xtb: 6.6.1 (8d0f1dd)
C            3.23836256242232        1.21778271328503        0.07131607728126
N            2.29744438375087        0.13962084371025        0.10588231015255
C            2.60120424638446       -1.20254140363968        0.20501812441951
N            1.42450606215609       -1.90598614308831        0.09074713719678
C            0.38278934591142       -1.05662164334245        0.00068855995095
C            0.90652337253257        0.24221337323536        0.03705928383364
C            0.12150207703209        1.40768142460263        0.01359951829254
O            0.49999738514951        2.58412442598970        0.01982131251968
N           -1.26651341209464        1.06360925067765       -0.01847359014494
C           -2.17725273374243        2.20576903773576       -0.05046719966915
C           -1.82278465167251       -0.18946851821252       -0.06354985855922
O           -3.02445252074969       -0.34704542836311       -0.04113357011358
N           -0.95606472065810       -1.34874529758453       -0.15065797652792
C           -1.50936876421180       -2.74671241446632       -0.16957163771357
H            3.75997553927905        1.30938588390564        1.02889883029802
H            3.98315919224874        1.05648055901911       -0.71375396295170
H            2.69653311171509        2.14212648606497       -0.12342134673833
H            3.57525138840195       -1.61067785351039        0.06412825245300
H           -1.56679730713361        3.11104727169079       -0.01390153532244
H           -2.75903138366547        2.19941601040852       -0.97166213042517
H           -2.85784948538852        2.19102733531426        0.79934819566777
H           -0.87043507458297       -3.34283330057486        0.46810117834358
H           -1.62347673496509       -3.60645226059027       -1.10778584665965
H           -2.51854252336826       -2.61519837180486        0.22190129623116
H            1.37753531318514       -2.90897337829034        0.12490247433252
