25
 energy: 0.000000000000 xtb: 6.6.1 (8d0f1dd)
C            3.23720132972391        1.16630909158653        0.08434468864950
N            2.29877796055224        0.07527476373246        0.03981602671198
C            2.58028186251803       -1.21425391179017        0.03006175752192
N            1.43813944744728       -1.93419254010258        0.00098261751768
C            0.39035684826767       -1.05887462812143       -0.00790371763344
C            0.93510047688824        0.21347817468824        0.01709077332874
C            0.09450143016486        1.40504290868848       -0.00410946993748
O            0.49712746915594        2.54126690785742       -0.00342325656480
N           -1.25076628431515        1.06271869620815       -0.03085477937476
C           -2.21907191394203        2.15522079838987       -0.05001256521996
C           -1.81739470187490       -0.20012724136556       -0.04692818139228
O           -2.99983858926755       -0.37846413507442       -0.07008877579474
N           -0.92618577614240       -1.30210203518959       -0.03682761236648
C           -1.46982251276835       -2.64643077634382       -0.06029819901142
H            3.71247229913541        1.21471443890471        1.06488839270555
H            4.00791460421487        1.03430799217987       -0.67357688121503
H            2.69909982127087        2.09770098766290       -0.09130154035862
H            3.56654087521359       -1.63682977417947        0.04233139674524
H           -1.67107945562430        3.09322822573871       -0.02552706696334
H           -2.82428927394145        2.09428605349656       -0.95318074103337
H           -2.87644002486466        2.07745706351925        0.81450059976605
H           -1.17061985538665       -3.19584861009707        0.83242224714061
H           -1.14560246782873       -3.17511580834413       -0.95688266944647
H           -2.55549768731684       -2.55659960601237       -0.07459039105944
H            1.38130842369251       -2.94313824728853       -0.01389874052104
25
 energy: 0.027827667902 xtb: 6.6.1 (8d0f1dd)
C            3.23021886707269        1.17673124013524        0.08574110720237
N            2.29096188067488        0.09319771797859        0.03787636672316
C            2.59469321835606       -1.23231009723044        0.03108117754057
N            1.46220279577658       -1.99727559545235        0.00093823967961
C            0.40347128918686       -1.09244929077133       -0.00855600334149
C            0.91618429186342        0.20792996259676        0.01508859760413
C            0.09187823407048        1.39777953110498       -0.00476587692468
O            0.49051197929481        2.56402119193567       -0.00309070826414
N           -1.27071768657727        1.06579641163301       -0.03122030615135
C           -2.23217921355045        2.16769397685223       -0.05005282907615
C           -1.82624583140883       -0.18848316586887       -0.04776981251668
O           -3.02392735240963       -0.36553800049479       -0.07141044111087
N           -0.93700611150339       -1.29985445935608       -0.03732123628898
C           -1.48744381808711       -2.62981725376566       -0.06010211624747
H            3.71337612949754        1.21783362733570        1.06583779623644
H            3.99832505638614        1.03547526720152       -0.67654391554021
H            2.70068285219570        2.11180052546262       -0.08831103911823
H            3.57360101025779       -1.63892952608823        0.04467551817893
H           -1.67848472544499        3.10459297285066       -0.02561261485588
H           -2.84125159689358        2.11815602087689       -0.95276322554073
H           -2.89356634631412        2.10145570979940        0.81378215198103
H           -1.17709203417153       -3.17401862207140        0.83253815305343
H           -1.15284872717423       -3.15374284001133       -0.95617913268459
H           -2.57225767412313       -2.53336018107545       -0.07390968650958
H            1.53912781799775       -3.06765633483331       -0.01291625183412
25
 energy: 16.016196646795 xtb: 6.6.1 (8d0f1dd)
C            3.22202336043280        1.18059088158529        0.08660820220230
N            2.27651897408296        0.10753738095495        0.03437862268626
C            2.59854894332411       -1.24318470675887        0.03311629697044
N            1.48327201367028       -2.06508929615513        0.00131275472074
C            0.41320399763860       -1.13397493239583       -0.00948474338393
C            0.88994570249444        0.19248337938941        0.01236996050672
C            0.08808757431711        1.37889093003408       -0.00529345277967
O            0.47873399382644        2.56145756407378       -0.00224328564043
N           -1.29813995586886        1.07678369434728       -0.03165531907600
C           -2.24867387229846        2.18887154661250       -0.05018375493957
C           -1.83393074760969       -0.16787668056210       -0.04862829825152
O           -3.03815926659019       -0.34976063766949       -0.07314857930509
N           -0.95217545096302       -1.28748762441663       -0.03779197066122
C           -1.51072044377007       -2.60592249596374       -0.05984521647420
H            3.71350387913792        1.21761352815551        1.06517324514669
H            3.98757580751828        1.03565418500798       -0.68026184293584
H            2.70438523399339        2.12324672143531       -0.08349536360723
H            3.57595836260034       -1.63045712257298        0.04795644421618
H           -1.68765704796222        3.12303069262756       -0.02568513725031
H           -2.86127305953751        2.14824589975992       -0.95228933959605
H           -2.91371596618975        2.13168814745427        0.81282195299882
H           -1.18944292849377       -3.14848452149071        0.83078385539977
H           -1.16643302353598       -3.12887447009263       -0.95365822092712
H           -2.59454762052352       -2.50957653507067       -0.07305973357481
H            1.77532584527883       -3.20637673954502       -0.01076316425033
25
 energy: 29.921060555770 xtb: 6.6.1 (8d0f1dd)
C            3.21715991113482        1.17934070608487        0.08648665933496
N            2.27162704854527        0.10656865300077        0.03230989138249
C            2.59739737935953       -1.24755785544062        0.03464833983297
N            1.49643470747039       -2.09580310081849        0.00178569502431
C            0.41866072818832       -1.15460339677542       -0.01024078764679
C            0.88125979832266        0.17974618394359        0.01118135602222
C            0.08582527866260        1.36884665904974       -0.00516765586326
O            0.47373901652779        2.55048348932249       -0.00141248650295
N           -1.31243092507810        1.08815607245359       -0.03197579416926
C           -2.25954750859733        2.20301765027126       -0.05043353620997
C           -1.83785252547325       -0.15734311358916       -0.04936584956750
O           -3.04085673667526       -0.34805192986328       -0.07460438532644
N           -0.95615580967215       -1.27727808645722       -0.03805601000265
C           -1.52477115526591       -2.59196497089714       -0.05956543963398
H            3.71083737372468        1.21580976172521        1.06390384525615
H            3.97999101428934        1.03773694651148       -0.68331270061849
H            2.70415816409609        2.12684501457337       -0.07950191243094
H            3.58121573730174       -1.62293312281653        0.05010879123657
H           -1.69787937221700        3.13647936093998       -0.02582931817351
H           -2.87445374351872        2.16606700530902       -0.95158507833705
H           -2.92692976265737        2.14951623946104        0.81149014278885
H           -1.20126602694840       -3.13378816241326        0.83059699257005
H           -1.17935689978434       -3.11479906124544       -0.95291072515239
H           -2.60846260340946       -2.49461782545915       -0.07220280014656
H            1.91387121664650       -3.28084432812668       -0.00931332147226
25
 energy: 36.556526587573 xtb: 6.6.1 (8d0f1dd)
C            3.21652748296699        1.17717520113408        0.08625921332297
N            2.27098177512446        0.10323300311323        0.03166994518552
C            2.59098121826891       -1.24830028216589        0.03582772774906
N            1.49603431930572       -2.10053046192585        0.00255949384958
C            0.41702002709084       -1.15574645218306       -0.01070594201396
C            0.88013075541945        0.17737393655248        0.01103061872284
C            0.08467464895722        1.36925253914638       -0.00490171791920
O            0.47232853230712        2.54732931316252       -0.00104088438069
N           -1.31668543240087        1.09514120886377       -0.03202754364976
C           -2.26326396199087        2.20823694028048       -0.05056960589993
C           -1.84140695981428       -0.15260158761908       -0.04960877293483
O           -3.04223957222570       -0.34796671125390       -0.07510657733476
N           -0.95790514069218       -1.26998670540948       -0.03816443253207
C           -1.52769903260108       -2.58718290855851       -0.05944435133193
H            3.70963929318624        1.21413646158668        1.06342843900540
H            3.97815597357807        1.03800830751057       -0.68448101504571
H            2.70382327556274        2.12585695472783       -0.07847067847617
H            3.57834444160295       -1.61958308553731        0.05040387284094
H           -1.70233062718844        3.14169630246363       -0.02595478972287
H           -2.87801585674985        2.17002626719676       -0.95181919696821
H           -2.93046494134676        2.15353939196232        0.81149418770539
H           -1.20327235036723       -3.12841369026337        0.83054352042516
H           -1.18187455089739       -3.10963739459355       -0.95267101412132
H           -2.61142199178008       -2.49253253719550       -0.07187426861161
H            1.97015297965648       -3.31949522225118       -0.00934231566926
25
 energy: 42.756720445006 xtb: 6.6.1 (8d0f1dd)
C            3.21449847353955        1.17378347298940        0.08577903494934
N            2.26356510490686        0.10298330374499        0.03118871684173
C            2.57332843377686       -1.24700533112670        0.03824905063445
N            1.49127641784235       -2.11073271457782        0.00568322004343
C            0.41099143435311       -1.15647273386834       -0.01133830836285
C            0.87222229215589        0.17830327531603        0.01097077613422
C            0.08204132799832        1.37242372692813       -0.00437051434343
O            0.46757351097620        2.54846495868350       -0.00110734915816
N           -1.32415903988442        1.10608851510931       -0.03194639205504
C           -2.26813634457251        2.21750405987217       -0.05064638614528
C           -1.84730921721303       -0.14304867682283       -0.04981392546154
O           -3.04667907954124       -0.34207818665817       -0.07535871137798
N           -0.96507097892355       -1.25760325768214       -0.03863710726789
C           -1.53242918607447       -2.57870097991624       -0.05945161957641
H            3.70760821135116        1.20984851561153        1.06255690417893
H            3.97510665582431        1.03385703623088       -0.68542267153521
H            2.70661754560153        2.12612120565320       -0.07825416572930
H            3.56429689066129       -1.61334985532103        0.05005884841904
H           -1.70659538394928        3.15026954843295       -0.02602150225252
H           -2.88226744744448        2.17740226799960       -0.95224019225750
H           -2.93471989820269        2.16103946298462        0.81180504982272
H           -1.20340155767745       -3.11890337341195        0.82940875229770
H           -1.18253061486317       -3.10052611148715       -0.95139632636373
H           -2.61618727896996       -2.49114459251412       -0.07172114554372
H            2.09257403330129       -3.40949474742576       -0.01094012369645
25
 energy: 37.473334765455 xtb: 6.6.1 (8d0f1dd)
C            3.21196072621861        1.16699864516134        0.08533413203571
N            2.24747103304419        0.10307218794878        0.03142598219520
C            2.53052911598299       -1.24265965300141        0.03948336996652
N            1.47113425624975       -2.11599837167868        0.00950136111943
C            0.39628336399054       -1.14550619083345       -0.01203177869932
C            0.85874978066133        0.18826276715183        0.01097787456392
C            0.07790620537284        1.38409757629484       -0.00380125949862
O            0.45817540738526        2.55492958958329       -0.00140390483508
N           -1.33228527923943        1.12401716281370       -0.03185701561440
C           -2.27359159814013        2.23044336451603       -0.05082827655966
C           -1.85463300803233       -0.12918559845022       -0.04979698565877
O           -3.05228554094785       -0.33126427957391       -0.07554388154470
N           -0.97763772216528       -1.23565929825414       -0.03880943849510
C           -1.53784914388257       -2.56556976512194       -0.05926245944477
H            3.70491567006539        1.20269398553201        1.06123562000736
H            3.97125130010989        1.02617272266478       -0.68611487995236
H            2.71297075487180        2.12607959020126       -0.07797141702922
H            3.52851574656778       -1.60800010866373        0.04929183143116
H           -1.71109147494692        3.16177533408487       -0.02621324122519
H           -2.88622610129019        2.18588746240712       -0.95291834181387
H           -2.93868449293994        2.16970262814022        0.81218970390528
H           -1.20231475908735       -3.10607644253225        0.82693365657264
H           -1.18194251367806       -3.08804653925912       -0.94841884641382
H           -2.62168616380603       -2.48948948140247       -0.07148847669577
H            2.31257874260822       -3.57764849898475       -0.01287941612195
25
 energy: 32.571555532676 xtb: 6.6.1 (8d0f1dd)
C            3.20909528651137        1.15967620657932        0.08522780909176
N            2.23222735844391        0.10045676285723        0.03300098931016
C            2.48427492960089       -1.24005440557040        0.03799587567916
N            1.44532878671449       -2.10763584137284        0.00882874866346
C            0.38078948619703       -1.12634280140820       -0.00998272188713
C            0.84885019001450        0.20200867114858        0.01099690336279
C            0.07086558878687        1.40136485748773       -0.00482678588405
O            0.44719785814543        2.56337147267701       -0.00102014169409
N           -1.33364541764581        1.13904362755365       -0.03213192347350
C           -2.27658024263143        2.24052911125368       -0.05100212204000
C           -1.85931088034074       -0.12069853970429       -0.04973102133366
O           -3.05629130263628       -0.31879744608120       -0.07579068492954
N           -0.98656865011510       -1.21866667572341       -0.03740528135462
C           -1.54025327584371       -2.55571187387739       -0.05878361768408
H            3.70175925519269        1.19468361276242        1.06023799637189
H            3.96728035721803        1.01661895194274       -0.68589883941545
H            2.71917776255395        2.12476228681387       -0.07842241341941
H            3.48642322742568       -1.60998175250309        0.04926754761728
H           -1.71666905018822        3.17280214962123       -0.02654793120397
H           -2.88862584148055        2.19184507165427       -0.95301673821474
H           -2.94102932109352        2.17581666891149        0.81196441183722
H           -1.19865910823940       -3.09505814046643        0.82504925925092
H           -1.17820171279175       -3.07670495089992       -0.94566149828102
H           -2.62445194174366       -2.48854473447835       -0.07133384413942
H            2.51923096291782       -3.73575350043368       -0.01398006403537
25
 energy: 23.201043575595 xtb: 6.6.1 (8d0f1dd)
C            3.21074935833540        1.15621018048675        0.08477984915543
N            2.22822474813375        0.09227330584939        0.03770618083347
C            2.43046569437815       -1.23559946968469        0.03223311222543
N            1.37502876085942       -2.02492842094499        0.00454214613274
C            0.35260786749627       -1.05907673928114       -0.00687629952861
C            0.85676866175470        0.23886575318791        0.01205123573685
C            0.06083495270430        1.43572940413715       -0.00577476588565
O            0.44263715611429        2.58325295772345       -0.00066053860536
N           -1.31352920551915        1.13870462523759       -0.03215499702029
C           -2.26942647407845        2.23481670535359       -0.05090255930165
C           -1.85970822645529       -0.13157048386408       -0.04944321933918
O           -3.05811490511330       -0.30478758238401       -0.07536329181228
N           -0.99188504064589       -1.21321410779151       -0.03594406020948
C           -1.53327122891484       -2.55861625360490       -0.05872962759137
H            3.70048429882725        1.19127443357970        1.05979939724563
H            3.96900043540637        1.01077444838250       -0.68419526348169
H            2.71977157116135        2.11938634421088       -0.08117899065909
H            3.43799813656046       -1.62871764576919        0.04944558296451
H           -1.71699607999110        3.17149254475720       -0.02648574831229
H           -2.88263254153102        2.18553767603900       -0.95189707531044
H           -2.93495304792586        2.16917816899032        0.81094603155155
H           -1.19230017829012       -3.09565647289217        0.82487168325622
H           -1.17107564379276       -3.07648853345810       -0.94558216366509
H           -2.61789897881336       -2.49050913515017       -0.07164012953659
H            2.66943421431188       -3.91930291436649       -0.01251257664823
25
 energy: 20.531586569656 xtb: 6.6.1 (8d0f1dd)
C            3.21363068202507        1.16221337638699        0.08388936164501
N            2.23336312367398        0.09361874642577        0.04012942245810
C            2.40596615536301       -1.23290997099313        0.03047292964275
N            1.30343133128421       -1.95179257510539        0.00241729775567
C            0.33207391095585       -1.00011986510798       -0.00652172178309
C            0.86822510464696        0.27452072114785        0.01359344193371
C            0.04846343503309        1.46477985876375       -0.00461096672741
O            0.43929570472765        2.60867656366544       -0.00023095883059
N           -1.30186215289505        1.14033364603582       -0.03177370536279
C           -2.26844946321454        2.23335749908753       -0.05080633838991
C           -1.86467791418495       -0.13761325291210       -0.04951372473941
O           -3.06495829574284       -0.28467607119269       -0.07514873371826
N           -1.00138734626759       -1.20815048219110       -0.03694880379110
C           -1.52752674988001       -2.55878812951709       -0.05910053903157
H            3.70086562754192        1.19336108186836        1.05992770836666
H            3.97197923973100        1.01094822116689       -0.68339960993067
H            2.71913138913704        2.12122001220514       -0.08374896049076
H            3.41218014865469       -1.64056411930003        0.04838813333237
H           -1.71994793366193        3.17277200999840       -0.02620429656301
H           -2.88017602515763        2.18030778119901       -0.95216094193830
H           -2.93247046916794        2.16352581305477        0.81141067553367
H           -1.18545738387243       -3.09412770308906        0.82458726687733
H           -1.16409706074639       -3.07473246002534       -0.94588842481225
H           -2.61254669912043       -2.49171732916452       -0.07196403998028
H            2.78716594610977       -4.15541458366324       -0.00976055926133
25
 energy: 20.797708550575 xtb: 6.6.1 (8d0f1dd)
C            3.21547318809783        1.16913063494419        0.08414560889369
N            2.23491736166341        0.10367919260411        0.04047107213246
C            2.40335069802454       -1.23055149100770        0.03050609935612
N            1.26586502183221       -1.91667927198419        0.00123671505494
C            0.32480629893076       -0.96580262002102       -0.00679071404635
C            0.87364118669318        0.30309750035110        0.01485032741219
C            0.04029859461206        1.48494038926635       -0.00435370654171
O            0.43419513789520        2.63305630464292       -0.00089617720013
N           -1.30187404897015        1.14694447047322       -0.03170946889851
C           -2.27278823397012        2.23655119872722       -0.05085700229404
C           -1.87112046135408       -0.13403935639534       -0.04920081040206
O           -3.07208895851126       -0.26987325892961       -0.07454104157980
N           -1.00882632904800       -1.19978192508511       -0.03758509086844
C           -1.52045292045533       -2.55417903104842       -0.05901800705872
H            3.70239341981057        1.19760627531026        1.06077526603510
H            3.97452571419910        1.01330493063228       -0.68215114742283
H            2.72038645654368        2.12624072976030       -0.08462291887348
H            3.40026043498222       -1.64505256727937        0.04661406950273
H           -1.72377288450495        3.17535690117476       -0.02639094193820
H           -2.88158520342170        2.17767660222425       -0.95300775392265
H           -2.93378745675944        2.16102781666358        0.81237635597515
H           -1.17770686777282       -3.09065775374808        0.82443694400806
H           -1.15604883161303       -3.07131073985308       -0.94540273108001
H           -2.60607518659251       -2.49335270825402       -0.07210110617132
H            2.84822817466109       -4.36830343442457       -0.00974992787768
25
 energy: 20.787346671722 xtb: 6.6.1 (8d0f1dd)
C            3.21574470160054        1.17511932949617        0.08436069583114
N            2.23206951560595        0.11686001076014        0.03986207309259
C            2.41206596400234       -1.22145612217648        0.03090009134886
N            1.26577982482552       -1.90294679812688        0.00141771705290
C            0.32631952429697       -0.95388010508940       -0.00689897646555
C            0.87383491334268        0.31805083918266        0.01586068408006
C            0.03785024136113        1.49252424234485       -0.00412422409769
O            0.42992451524806        2.64503452442565       -0.00138252678255
N           -1.30489256444589        1.15025395372630       -0.03170448335787
C           -2.27497142248484        2.23891577627673       -0.05085505818143
C           -1.87402888960970       -0.13010863625662       -0.04914173443706
O           -3.07497544714899       -0.26658589367504       -0.07435262292530
N           -1.01013409368182       -1.19580563715748       -0.03767253996859
C           -1.51642922045059       -2.55029743488793       -0.05896941768934
H            3.70362948815450        1.20120834530994        1.06107731096451
H            3.97536496130284        1.01569965041900       -0.68150846847938
H            2.72275417166427        2.13268426049646       -0.08495241368755
H            3.40051810646702       -1.63833858394921        0.04612040968951
H           -1.72431304931992        3.17639612750163       -0.02629541849807
H           -2.88239293730509        2.17846479796192       -0.95326859562825
H           -2.93471065611252        2.16168983965250        0.81261214735818
H           -1.17503927869695       -3.08858974480496        0.82458279540976
H           -1.15304340253773       -3.06922938534114       -0.94543151006227
H           -2.60273401610801       -2.49244455109064       -0.07228941767747
H            2.84402335500268       -4.50419001625412       -0.01091260469457
25
 energy: 20.372842501963 xtb: 6.6.1 (8d0f1dd)
C            3.21761917591992        1.18320737929058        0.08488100300240
N            2.22848206592752        0.13592421415239        0.03914379289041
C            2.42837683702860       -1.20280319137846        0.03147162844400
N            1.28863116204276       -1.89146752061342        0.00219654909483
C            0.33270211561122       -0.95262306020531       -0.00685851526755
C            0.87189085548030        0.32657590346534        0.01653082776615
C            0.03885322887492        1.49438674734808       -0.00433661803039
O            0.42624295456085        2.65114293428945       -0.00190567074745
N           -1.30839820116995        1.15145609095734       -0.03182327054062
C           -2.27636115138164        2.23973008796839       -0.05089740225085
C           -1.87318158751774       -0.12607469095382       -0.04904616649661
O           -3.07399890579230       -0.26962567147500       -0.07421156783326
N           -1.00650750764876       -1.19518946490993       -0.03736229697656
C           -1.51330809093573       -2.54774723719308       -0.05883028674656
H            3.70622442177068        1.20532903628375        1.06176313818663
H            3.97688146328734        1.01864705596991       -0.68107567952873
H            2.72849886001453        2.14226945037287       -0.08477404579746
H            3.40811682681365       -1.62609897124012        0.04604799336017
H           -1.72499764791976        3.17665798431014       -0.02640987745389
H           -2.88354429700463        2.17931066338522       -0.95329835962742
H           -2.93578985098641        2.16255132986989        0.81262384719225
H           -1.17391364477678       -3.08815418663179        0.82480270548329
H           -1.15184927303895       -3.06873450111350       -0.94549654125523
H           -2.60044299728800       -2.49112657710041       -0.07222825156330
H            2.78198749310081       -4.61851501610448       -0.01387302310972
25
 energy: 19.974680892417 xtb: 6.6.1 (8d0f1dd)
C            3.22015858924387        1.19141068650209        0.08504808679712
N            2.22829214995096        0.15138331250708        0.03865971877619
C            2.44334189450406       -1.18350749426347        0.03218800630103
N            1.32132109057408       -1.88502468870952        0.00355337677676
C            0.34074524336717       -0.96153440186188       -0.00669242249066
C            0.86965347178984        0.32460150944934        0.01647371384995
C            0.04222430580111        1.49110793983968       -0.00425268303036
O            0.42467179294874        2.64947196749601       -0.00176313344828
N           -1.31039596949743        1.15058497611591       -0.03179152894563
C           -2.27654263716637        2.23896229233992       -0.05088993047171
C           -1.86847103095433       -0.12398464513390       -0.04907013632572
O           -3.06919866646306       -0.27695965116729       -0.07441975185353
N           -0.99928507628794       -1.19747614233377       -0.03698384153113
C           -1.51198419584553       -2.54771281380922       -0.05884927853159
H            3.70809288122735        1.20995046413441        1.06220878272829
H            3.97773638835688        1.02274984681534       -0.68156914713534
H            2.73312763626825        2.15118928247651       -0.08462120537718
H            3.41885857866623       -1.61655408027500        0.04658909718868
H           -1.72490335878290        3.17594979413375       -0.02630078245977
H           -2.88422021002234        2.17999446347043       -0.95337357952390
H           -2.93661728167393        2.16314030434891        0.81257771933960
H           -1.17415738853834       -3.08913356734666        0.82489692290989
H           -1.15207312989926       -3.06960868870661       -0.94575782743991
H           -2.59933768799482       -2.48956152577280       -0.07226291361997
H            2.69117691540012       -4.67041035150519       -0.01656335028827
25
 energy: 19.845046422163 xtb: 6.6.1 (8d0f1dd)
C            3.22174017871892        1.19489313207053        0.08523965946440
N            2.23109025177719        0.15458476823769        0.03866416838666
C            2.44727575498492       -1.17640141084539        0.03241192702388
N            1.33680969757309       -1.88498743695643        0.00397417418201
C            0.34439102465424       -0.96914780486320       -0.00672823534132
C            0.86898865975579        0.31871391634628        0.01574573909632
C            0.04427977249240        1.48812611433454       -0.00445927281125
O            0.42520468500144        2.64544780893335       -0.00175466959811
N           -1.31036896030246        1.14964931679506       -0.03181631839746
C           -2.27638742412522        2.23801911678701       -0.05091347785784
C           -1.86509124765597       -0.12429462018068       -0.04899788120337
O           -3.06579450207943       -0.28120236148455       -0.07436560842200
N           -0.99507667159853       -1.19900644865144       -0.03684608814644
C           -1.51233101670387       -2.54893175601537       -0.05878947694877
H            3.70873095693094        1.21174139732048        1.06256091861195
H            3.97814605161415        1.02484420535267       -0.68167761637357
H            2.73442241703167        2.15438395773102       -0.08424448436154
H            3.42379527104071       -1.61401801027001        0.04686763054840
H           -1.72496243225068        3.17537256993209       -0.02643141263095
H           -2.88454472012199        2.17965443920820       -0.95337776705383
H           -2.93679947948711        2.16294028326000        0.81263465804558
H           -1.17455740855646       -3.08999478834764        0.82495242024835
H           -1.15269317548207       -3.07047759667239       -0.94575591368337
H           -2.59935862723789       -2.48918034635942       -0.07206264832386
H            2.64530524899868       -4.66169965691841       -0.01779651225927
25
 energy: 19.815057539146 xtb: 6.6.1 (8d0f1dd)
C            3.22191715944911        1.19546617114774        0.08504491703339
N            2.23284942616338        0.15338385245403        0.03877373479393
C            2.44658232031092       -1.17596859741045        0.03260516500941
N            1.33904677524989       -1.88624853969095        0.00424115460874
C            0.34489245566353       -0.97143575330324       -0.00669133041105
C            0.86887466085520        0.31598955220910        0.01549688714416
C            0.04463405755090        1.48728006352521       -0.00424027335435
O            0.42586214845105        2.64368325600498       -0.00139978087833
N           -1.30997194609370        1.14940384170421       -0.03172846748001
C           -2.27613909873096        2.23782685707384       -0.05087364183098
C           -1.86433008987091       -0.12498317013084       -0.04904414703714
O           -3.06504650976174       -0.28182430740794       -0.07450969648410
N           -0.99434656021907       -1.19911723275370       -0.03689409292954
C           -1.51279440523039       -2.54960056418825       -0.05888711604303
H            3.70859949227792        1.21212648820168        1.06235972627453
H            3.97798611662768        1.02528411180155       -0.68197126963830
H            2.73359464676625        2.15423731283591       -0.08446373264139
H            3.42461330657022       -1.61361425706494        0.04707100820761
H           -1.72469388847455        3.17522498794992       -0.02628606271026
H           -2.88424903579813        2.17961095702409       -0.95341121985913
H           -2.93666906917150        2.16282293100179        0.81262418414208
H           -1.17477142914532       -3.09018622096548        0.82486360516851
H           -1.15282093491528       -3.07063429594243       -0.94583921482159
H           -2.59956494629661       -2.48930834030780       -0.07220150856983
H            2.63815965274456       -4.65039031502399       -0.01760491549877
25
 energy: 19.809831270736 xtb: 6.6.1 (8d0f1dd)
C            3.22203065684420        1.19544395241816        0.08518909361595
N            2.23344994353845        0.15274536397651        0.03879776731354
C            2.44597964370081       -1.17621933168342        0.03252200245100
N            1.33873880027062       -1.88665279074681        0.00407856636064
C            0.34484509356640       -0.97152961730425       -0.00677263913042
C            0.86878670990566        0.31559421835080        0.01527937501262
C            0.04451056809522        1.48737056832396       -0.00443037478588
O            0.42603031528011        2.64351070716772       -0.00157445853722
N           -1.30984683883736        1.14948539727602       -0.03179188325594
C           -2.27622353352656        2.23780282114348       -0.05090144519833
C           -1.86434178776939       -0.12529573033236       -0.04899260172083
O           -3.06506841805434       -0.28161622792213       -0.07436952742590
N           -0.99444072168869       -1.19883680409128       -0.03691015287337
C           -1.51289134571901       -2.54973387481749       -0.05880691565434
H            3.70865167848022        1.21193050992418        1.06252177648675
H            3.97817821107251        1.02528039354859       -0.68174649845373
H            2.73353469145306        2.15405817262447       -0.08426011972109
H            3.42453104346227       -1.61350438560947        0.04698018595012
H           -1.72488222652033        3.17525731886632       -0.02641333072743
H           -2.88439002080923        2.17943947985902       -0.95337428868509
H           -2.93665316117010        2.16274484565275        0.81265069478942
H           -1.17463478351638       -3.09008063170687        0.82494046958834
H           -1.15280977366201       -3.07058050810392       -0.94575556598313
H           -2.59958310382852       -2.48940207501693       -0.07204862308760
H            2.63871266440487       -4.64818298305300       -0.01777759413347
