  72
        -99.45917198
 N         -2.5054722093        0.7752963759        2.2520274022
 C         -2.3284916855        2.0098782167        1.7682320094
 C         -3.1000722291        2.1990087671        0.5079892072
 C         -3.6874762650        0.8219714857        0.3321883621
 C         -4.5065167190        0.3040940223       -0.6520992446
 C         -4.9093327753       -1.0254677043       -0.5641457892
 O         -5.7101543490       -1.6503662941       -1.4478004304
 C         -6.2618152098       -0.9157525614       -2.5163826848
 C         -4.4731206222       -1.8440020137        0.5220699362
 O         -4.9156460816       -3.1149076845        0.4781887374
 C         -4.5773858448       -3.9960147584        1.5240534652
 C         -3.6627005195       -1.3157454185        1.5155244486
 C         -3.2921271923        0.0192221334        1.4060566445
 C         -2.2156534476        2.6290231769       -0.6912651372
 C         -1.3515471834        1.5175337759       -1.2868299951
 C         -0.2169461385        1.0671730799       -0.3597443747
 N          0.6417345344        0.1003812216       -1.0102180298
 C          1.9932186987        0.0137981589       -0.4992009523
 C          2.9873165151       -0.3492279404       -1.6170042067
 C          4.3962264585       -0.2538884047       -1.1107761423
 C          5.0706819236        0.9587907160       -1.1270802425
 C          6.3619521648        1.0628866206       -0.6362696962
 C          7.0099764884       -0.0477168836       -0.1126311727
 O          8.2608124171       -0.0638793272        0.3868431277
 C          9.0180157223        1.1240008363        0.3782842404
 C          6.3275051013       -1.2956057432       -0.0877612542
 O          7.0294302263       -2.3225008002        0.4328625176
 C          6.4533897777       -3.6065840107        0.4602069693
 C          5.0343557354       -1.3730193665       -0.5831450357
 C          0.0004126122       -1.1778040470       -1.2172364153
 C         -4.2492762380        3.2471920952        0.7071278195
 C         -5.1225944351        2.8732664050        1.9037115643
 C         -3.7312818185        4.6721245909        0.8713908064
 H         -4.8255319128        0.9234006115       -1.4738089790
 H         -6.8719906561       -0.0823278676       -2.1553197999
 H         -6.8942774406       -1.6176266897       -3.0562243792
 H         -5.4853973323       -0.5382307333       -3.1888740744
 H         -4.9390272358       -3.6300313214        2.4897033258
 H         -5.0737093321       -4.9347294374        1.2864214682
 H         -3.4965870185       -4.1617183091        1.5749085075
 H         -3.3305853139       -1.9107601017        2.3498617543
 H         -0.6425352989        0.6453040163        0.5619678338
 H         -2.8791411762        2.9958174978       -1.4753717771
 H         -1.5747984728        3.4520484617       -0.3755302537
 H         -1.9812022317        0.6660285519       -1.5421519568
 H         -0.9015514973        1.8902436353       -2.2086355430
 H         -1.7293621397        2.7398527905        2.2735137260
 H          0.3875077250        1.9438840684       -0.1082213064
 H          2.0761941444       -0.7228572340        0.3156832923
 H          2.2793201426        0.9877628742       -0.0971162883
 H          2.8363808186        0.3473853839       -2.4419475691
 H          2.7891144639       -1.3574138784       -1.9803044712
 H          4.5893430589        1.8335373614       -1.5367114895
 H          6.8613268266        2.0173943196       -0.6705564903
 H          8.5457083564        1.9046892808        0.9827074079
 H          9.1715882772        1.4934769092       -0.6402112692
 H          9.9793223358        0.8612013413        0.8157462774
 H          7.2112132505       -4.2578277091        0.8918256149
 H          5.5561332719       -3.6309978061        1.0871242321
 H          6.2057611433       -3.9566881621       -0.5467484080
 H          4.5095160869       -2.3154338005       -0.5731426356
 H         -0.6946250687       -1.1156897953       -2.0542662393
 H         -0.5605694888       -1.5014275482       -0.3272179630
 H          0.7421676009       -1.9357160206       -1.4519043039
 H         -4.8648586570        3.2007490330       -0.1966043243
 H         -4.5647411250        2.9673740176        2.8328655950
 H         -5.4929132409        1.8543955066        1.8198918248
 H         -5.9783351312        3.5410332674        1.9550573988
 H         -3.0527042011        4.7492331142        1.7165870813
 H         -3.2229447660        5.0246924450       -0.0207289830
 H         -4.5727183857        5.3353251705        1.0567652275
 H         -2.1067001170        0.4310465709        3.1129917959
