25
 energy: -42.024720288961 gnorm: 0.003242602984 xtb: 6.6.1 (8d0f1dd)
C            4.56102383500049        1.38204197299357        0.02561253538220
N            3.30861648014512        0.65586848259601       -0.06415984025452
C            3.33314400600864       -0.70234647486345        0.04085213567246
N            2.26431918789056       -1.41773158376933       -0.05486784542715
C            1.22996114800138       -1.98040865465853        0.16301243420125
C            2.17068897654099        1.30844687412604       -0.21179608609552
C            1.19244276779957        2.07016917323555       -0.35558055147178
O            0.21479663834292        2.72052970136414       -0.49373179156891
N           -2.40881483632351        2.64218196589919        0.82890774190610
C           -3.49217544306850        2.65523810535031        0.22597661007956
C           -2.46968852115566       -1.39988247467950       -0.30116340798636
O           -2.38810808454842       -0.25545824306108       -0.46856332207850
N           -2.32894552419647       -2.57339656142772       -0.17695158380656
C           -2.87837151958315       -3.83833095212715        0.11356191652569
H            4.99979741573910        1.25892795958051        1.01850208416529
H            5.26802082518616        1.01177579538647       -0.71932217526590
H            4.37842087064591        2.43994022907418       -0.15066986094797
H            4.29100432164246       -1.18997801447244        0.13953537087525
H           -1.51859646389382        2.74960057124374        0.34518932281138
H           -3.61742895405527        2.77654740002581       -0.85362648380520
H           -4.40783321217096        2.54145485854656        0.79953737126137
H           -2.42157341962624       -4.22147884539821        1.02956193417890
H           -2.64556182922264       -4.52054889123434       -0.70703444313249
H           -3.96273431720305       -3.78830147111990        0.24308375052493
H            0.48802716604793       -2.50662238106872       -0.38469419792662
