  25
        -42.15169786
 C          3.2130080815        1.1376639497       -0.1285766978
 N          2.2405836514        0.0779979834       -0.0663936636
 C          2.5065348496       -1.2118302288        0.0437321361
 N          1.3546304929       -1.9131655763        0.0927901265
 C          0.3055496828       -1.0380687732        0.0057262150
 C          0.8717898516        0.2446933988       -0.0828396278
 C          0.1342148458        1.4889743905        0.0148526888
 O          0.5993995258        2.6042081652        0.0608020993
 N         -1.2517025623        1.2131250414        0.1078808415
 C         -2.1319366811        2.0581431655        0.4662014879
 C         -1.9173194594       -0.3548944778       -0.6120353845
 O         -3.0941102293       -0.4240897621       -0.3502816730
 N         -0.9898214625       -1.3287231534       -0.0054291527
 C         -1.5312433826       -2.5924162597        0.4349679901
 H          3.6863213210        1.2729850725        0.8451148458
 H          3.9821669142        0.8999099574       -0.8621038121
 H          2.7146509373        2.0659208094       -0.4014249324
 H          3.4875215262       -1.6430962212        0.0888674862
 H         -1.8852295560        3.0760948051        0.7413491673
 H         -1.5334157034       -0.0661169900       -1.6085483045
 H         -3.1592789717        1.7132896202        0.4805020147
 H         -1.0668651480       -2.9002067104        1.3714582156
 H         -1.4056380694       -3.3720992668       -0.3198314273
 H         -2.5989347807       -2.4368326938        0.5964295761
 H          1.2812923627       -2.9167567482        0.1802491582
