25
 energy: -42.546209974487 xtb: 6.6.1 (8d0f1dd)
C            3.22998506182953        1.18245141377595        0.08589677569327
N            2.28511903823157        0.09272200372607        0.03178939707526
C            2.53709324326323       -1.23441908495353        0.03539301477201
N            1.43270104639003       -1.96365853684405        0.00530505959561
C            0.40651776096180       -1.07382494595018       -0.00997853517442
C            0.91221206113554        0.22298257337125        0.01149818260243
C            0.08834875114694        1.40509047798781       -0.00462341294629
O            0.47145278441262        2.56132596866269       -0.00188510201132
N           -1.27169588857140        1.08084209336678       -0.03059090327430
C           -2.23782192415806        2.17100913018734       -0.04973907271337
C           -1.81858633105327       -0.19072389688550       -0.04756989239621
O           -3.01800353069732       -0.35582159383765       -0.07177950512019
N           -0.94027221305061       -1.27008282448649       -0.03689501517849
C           -1.47333621721495       -2.61526645369072       -0.05983952381259
H            3.71317053702460        1.23009193118268        1.06480587233322
H            4.00005239050624        1.05142295543709       -0.67526063726560
H            2.70331711197010        2.12279357777456       -0.08553428588869
H            3.54152874051922       -1.61482054522179        0.03986045860557
H           -1.69016127806360        3.11077553310601       -0.02437572799054
H           -2.84367619855252        2.11241588615999       -0.95346413969020
H           -2.89693192643013        2.09443123157050        0.81427490361717
H           -1.14542162826402       -3.15797263477883        0.82748525254072
H           -1.12184434632705       -3.13652949733776       -0.95106316043742
H           -2.55794540840206       -2.53680554818236       -0.07348866324807
H            1.69716734754126       -3.65353359961431       -0.01933214013876
