25
 energy: 32.895551237097 xtb: 6.6.1 (8d0f1dd)
C            3.70818859861161        2.49842388272435        0.31199721333694
N            2.29471103728946       -0.44935564814199       -0.08888042237447
C            2.43038052086719       -1.73267224592689       -0.05661346910980
N            1.21171924445186       -2.38656242839679        0.00391726395151
C            0.27341099246580       -1.40631148678546       -0.04320844877459
C            0.95573588329930       -0.19842448305036       -0.09397266384667
C            0.23438911125804        1.04680388811316       -0.15435894101783
O            0.71202685859360        2.15205142441574       -0.22249182732843
N           -1.14716401864512        0.87345933190275       -0.06302884571209
C           -1.95575723697660        2.08221966672716       -0.01581899530313
C           -1.83028030653212       -0.31350595961015       -0.04823183761868
O           -3.04175736188764       -0.34413047448669       -0.01994206548903
N           -1.08550830084330       -1.49157845095523       -0.06922295572922
C           -1.82513696732251       -2.72941148432257       -0.10383946561620
H            4.09633877079071        2.68975728803361        1.28164125511073
H            4.32625352138933        2.48848471287887       -0.54283771714737
H            2.67371386503276        2.59995526999834        0.10403083078267
H            3.38399588296315       -2.21693795584823       -0.05436639969154
H           -1.29148848253399        2.89466022377560       -0.29804911113237
H           -2.74483057275235        2.00927216283469       -0.75542733766561
H           -2.33695818129949        2.22309954197017        0.99493624611224
H           -1.58053883562891       -3.36893985799127        0.74106679684307
H           -1.65244140209671       -3.26623106527946       -1.03888990648788
H           -2.87804971474365       -2.44506666044184       -0.04541030942462
H            1.08572279236007       -3.38732807562596        0.05757368300321
