25
 energy: 36.871937310242 xtb: 6.6.1 (8d0f1dd)
C            3.45993398975200        2.03470529505415        0.26761666504857
N            2.35434949723342       -0.24856199155416       -0.07520824286178
C            2.52754833445743       -1.53025828674938        0.00588058327296
N            1.33313445293906       -2.22629289188104        0.04330971350757
C            0.35771140980396       -1.28880812401820       -0.04097493008213
C            0.99837551196120       -0.05209782502330       -0.08808777657052
C            0.21889977676496        1.15181793335249       -0.17375063946011
O            0.62862501297693        2.27972334639166       -0.32677288385824
N           -1.15804144238088        0.91491249918745       -0.06025452064833
C           -2.00178575481670        2.09945959144535       -0.00381916943366
C           -1.79491586422897       -0.29353038346933       -0.04654458800312
O           -3.00444617419653       -0.37810774934801       -0.00708612639065
N           -0.99468296544276       -1.43924541938127       -0.07406847822658
C           -1.70247531503072       -2.69832205630536       -0.07148767201220
H            3.83631134489274        2.18858635410916        1.23468595654464
H            4.07492913077861        1.99868432744755       -0.58102678899073
H            2.47416884011409        2.37470355751041        0.07242198021558
H            3.48354314229789       -2.02587393012921       -0.09806584827669
H           -1.31121458584155        2.92800803215772       -0.18178138604437
H           -2.83439682535633        2.00584643287497       -0.68190474424489
H           -2.38776074469152        2.20466014478422        1.00618537074445
H           -1.47107439181784       -3.28551246069142        0.81875398184303
H           -1.48362597709812       -3.27290222268647       -0.97042057303857
H           -2.75805642529479       -2.41638997799889       -0.05954013957742
H            1.23746456586875       -3.22902132180421        0.08069364586631
