25
 energy: 32.023828643509 xtb: 6.6.1 (8d0f1dd)
C            3.77360113886937        2.65917535317039        0.30904144211734
N            2.27857815044830       -0.51005403115199       -0.11096980810249
C            2.40141665505304       -1.79931674126511       -0.06607664394493
N            1.17241513091040       -2.43579978005005       -0.00103004727294
C            0.24731391477507       -1.43984144920252       -0.03818685065943
C            0.94448942705648       -0.24175796693300       -0.08539695676451
C            0.24426570861536        1.01444836578826       -0.11549724275520
O            0.74672731259473        2.11212499390562       -0.14725233645885
N           -1.14414062685663        0.86155286393107       -0.06585745095257
C           -1.93900369188420        2.07873287148438       -0.03952924227486
C           -1.84639524112603       -0.31654863928123       -0.04992088041821
O           -3.05825527023906       -0.32841668214930       -0.03038476906970
N           -1.11219233655384       -1.50102877061767       -0.05912429302802
C           -1.85130510724733       -2.74171101369100       -0.09171446989015
H            4.12541483779188        2.85951598208387        1.29542864233248
H            4.40657783829367        2.62608519811142       -0.54301280166297
H            2.74265597258258        2.66570028103657        0.09208679058382
H            3.35186051733321       -2.29610182400215       -0.05599531489029
H           -1.26553399631308        2.90589198550200       -0.23960707168217
H           -2.68501950756719        2.03432888118004       -0.82163581004529
H           -2.39891948968528        2.18904882877397        0.93326896484880
H           -1.60264887432591       -3.36643957615889        0.76744895018750
H           -1.65371296468089       -3.29256757781282       -1.01553913244146
H           -2.90847113876648       -2.46742150009749       -0.04946247762881
H            1.03446141503810       -3.43649135125191        0.02916858535659
