25
 energy: -4.357777248019 xtb: 6.6.1 (8d0f1dd)
C            3.22029485285821        1.27070191906816        0.09840372877714
N            2.35793236461431        0.09548561984704        0.03558636402296
C            2.62624293907735       -1.27948824401437        0.03176380745063
N            1.42451187717340       -1.97378576797082       -0.00444849854068
C            0.41026274715644       -1.09213107897266       -0.01641075710100
C            0.95551713353080        0.18545579059149        0.00535968691528
C            0.14438167424245        1.33728765297443       -0.01327970873338
O            0.53136373496760        2.50796731270056       -0.02667157722608
N           -1.24662412177589        1.02075087244115       -0.02984591684535
C           -2.17261091382080        2.13708562008878       -0.04252015873644
C           -1.81454717785717       -0.21530380839673       -0.04727711334178
O           -3.01729477377994       -0.38818648797758       -0.06844714008381
N           -0.94003278975422       -1.32006404230003       -0.04133600619398
C           -1.51020840780875       -2.64749211022657       -0.06135269197744
H            3.71544082163825        1.38784289060123        1.07081144989670
H            4.00972698777000        1.21268026461680       -0.66250894411604
H            2.60567572350128        2.15238959861892       -0.07468430174991
H            3.58380384278617       -1.73612082533831        0.04086125332077
H           -1.58997982621483        3.05332123820010       -0.03306828958451
H           -2.76938525924250        2.09225400679583       -0.94308109981667
H           -2.80090369303971        2.09844755359728        0.84056919809245
H           -1.22456108303063       -3.21011918863760        0.83034959808492
H           -1.20413292348221       -3.19111898827004       -0.95792142253931
H           -2.59391701540277       -2.52568940637016       -0.07340133850538
H            1.32749432162335       -2.97636246700780       -0.01563059253161
