25
 energy: 31.462738978604 xtb: 6.6.1 (8d0f1dd)
C            3.82713626639301        2.72952710750150        0.30456492597269
N            2.26896225651320       -0.54362987752843       -0.10630766683695
C            2.37273763402612       -1.83002576839356       -0.06711685512879
N            1.14344695172799       -2.45740858344237       -0.01358435655890
C            0.22714148457678       -1.45379394676950       -0.04035806041014
C            0.93697934210554       -0.26331756805966       -0.07984942381915
C            0.25101885971567        1.00111836961267       -0.08898542758874
O            0.76366056619823        2.09390848814746       -0.10492700896027
N           -1.14025428201861        0.85445426526262       -0.05604335306682
C           -1.93458161088727        2.07359208844921       -0.04039159507392
C           -1.85499484752430       -0.31910759075696       -0.05083947077375
O           -3.06675334158370       -0.32160178221977       -0.03931872081014
N           -1.13151240214110       -1.51023191711991       -0.05952345345399
C           -1.87234038806926       -2.75069370555154       -0.08427016814778
H            4.17705784602703        2.94682727265521        1.28757722802523
H            4.45860592944230        2.68159879639934       -0.54792205835008
H            2.79584532313097        2.68962167593276        0.09116612226024
H            3.31923176778181       -2.33176576345384       -0.05231539824109
H           -1.26126636947282        2.90796342806300       -0.19914862011534
H           -2.65764170762298        2.04497401733983       -0.85013312828671
H           -2.43578229909617        2.16986893018495        0.91551964823314
H           -1.62761141462671       -3.36859814151376        0.78070460533883
H           -1.67114192854051       -3.30997028348423       -0.99954790785481
H           -2.92879986866141       -2.48265844217600       -0.04742108208268
H            1.00273507315219       -3.45608588252097        0.01008843234240
