25
 energy: 3.279937763584 xtb: 6.6.1 (8d0f1dd)
C            3.19201825343656        1.36625733228956        0.11253480903480
N            2.40903869947962        0.07666966503029        0.05073498826370
C            2.65380358536943       -1.32691352249782        0.05275960766122
N            1.44249053493156       -2.02072893519307       -0.00620340763851
C            0.42965879198700       -1.13320567229720       -0.02021496804202
C            0.99316937051900        0.14093049155900        0.00487920620023
C            0.17416127470463        1.28461122141235       -0.02693134545000
O            0.55464020897003        2.45447272657998       -0.06727873796892
N           -1.22144735092713        0.98895603838604       -0.03145692911467
C           -2.11964573480812        2.12661935455591       -0.03170257916807
C           -1.80036482342551       -0.23832533915802       -0.04775670653345
O           -3.00457033324747       -0.40276486327242       -0.06203890204695
N           -0.93093926999378       -1.34873827143158       -0.04727707173441
C           -1.54503160723742       -2.65844872341365       -0.06297002758436
H            3.68594978434320        1.55733481594878        1.07391203283059
H            3.98826580320850        1.38656505643903       -0.64994462284926
H            2.49494064639725        2.18000932029998       -0.06138520060518
H            3.58992068385489       -1.82443441096729        0.03154044583764
H           -1.50786898465563        3.02275619414085       -0.04558243348859
H           -2.72466792028482        2.08070063517076       -0.91450661406457
H           -2.71292396750999        2.11819579292700        0.87065816811662
H           -1.27688846395767       -3.22970945727539        0.82808587500669
H           -1.26320842023968       -3.21299875206498       -0.95999097874843
H           -2.62588947303700       -2.50138733923858       -0.07085186277863
H            1.31636894272503       -3.02608373022872       -0.02673765752668
