25
 energy: 15.112392636753 xtb: 6.6.1 (8d0f1dd)
C            3.19666583823205        1.45930294394184        0.13933006592275
N            2.43240374595001        0.05257441685951        0.02606318878030
C            2.65899412871295       -1.36143153816034        0.13053632142525
N            1.44879829550448       -2.05823921301872        0.01784378453290
C            0.43753930245831       -1.17134211364044       -0.02776511058600
C            1.01685436178720        0.10290586567043       -0.00663347504659
C            0.20300016520690        1.24669161891073       -0.05161468400990
O            0.57997422633302        2.41819768710238       -0.13291192821886
N           -1.19617681272125        0.96523891985065       -0.03835426152084
C           -2.07920885071723        2.11551510939359       -0.02515841096707
C           -1.78363491838883       -0.25491954307861       -0.04770944145352
O           -2.98924433025626       -0.40232293199919       -0.04997518864780
N           -0.92642646895370       -1.37614415770929       -0.05475127618067
C           -1.58285422575480       -2.66707739516052       -0.06335810719864
H            3.66030956693500        1.72367823321724        1.08980581683079
H            3.97629923985189        1.55030377925205       -0.62942234618189
H            2.41406978363009        2.20347126319781       -0.04153364194989
H            3.57435386282423       -1.90011426235603        0.01461188479715
H           -1.44025575163871        2.99226340328994       -0.07153907753132
H           -2.75012348119536        2.05727482674312       -0.85760588708606
H           -2.62175006768357        2.13640733148317        0.90577885822687
H           -1.33100655475328       -3.24571764326808        0.82724703555908
H           -1.32671671558099       -3.23254879803126       -0.96075536655321
H           -2.65855043700888       -2.47190579987997       -0.06534467283862
H            1.35454995653508       -3.06785697568614       -0.01288428066972
