25
 energy: 35.914118448156 xtb: 6.6.1 (8d0f1dd)
C            3.50850025702054        2.10837467753738        0.28095950080091
N            2.34185945495885       -0.27725552919966       -0.07715831977567
C            2.50826823909036       -1.55576412269572       -0.02632728190164
N            1.31309037469929       -2.25195624677526        0.03256858304258
C            0.34176203294101       -1.30883761267374       -0.04438893354625
C            0.98861848481413       -0.07698901187905       -0.09308545382161
C            0.21555284008267        1.12981824584585       -0.18480062511190
O            0.64153132020759        2.25136558336769       -0.33456205058018
N           -1.15624449073696        0.90590649629633       -0.06531572371299
C           -1.98827530839177        2.09767414231538       -0.00902005159395
C           -1.80408104221776       -0.29690865755656       -0.04909789185429
O           -3.01381802861324       -0.37084261207986       -0.00334710174549
N           -1.01179625355970       -1.44771368844623       -0.07818056116050
C           -1.72614606731786       -2.70207729805950       -0.07677196668304
H            3.88586039066560        2.26671291753790        1.24976500205797
H            4.12705201671824        2.07462064294505       -0.56227272771423
H            2.50935090711102        2.40353938625998        0.08685323289431
H            3.46043374839440       -2.05325572271662       -0.12400832463612
H           -1.30549574907985        2.92144935444567       -0.21785532095998
H           -2.82181769257487        2.00794799522132       -0.68735087197706
H           -2.34664362785035        2.21950021207034        1.00977052193123
H           -1.49932940812946       -3.29326926095320        0.81373605079112
H           -1.51335464534744       -3.28009088943639       -0.97424745156518
H           -2.78019513646138       -2.41294268469861       -0.06093232834469
H            1.21520114492929       -3.25504188367243        0.07939256395228
