25
 energy: 8.213126035250 xtb: 6.6.1 (8d0f1dd)
C            3.18996554357528        1.41020493896926        0.12492955499837
N            2.42103812431029        0.06797776648841        0.04105295112820
C            2.65929948526445       -1.33904816412200        0.09073126963261
N            1.45243247202566       -2.03921240896372        0.00091205741321
C            0.43657400715061       -1.15376641528572       -0.02584752416157
C            1.00540133713737        0.12119089746323       -0.00101469486492
C            0.18840632483428        1.26358058210131       -0.03643923937725
O            0.56865912251827        2.43389755927814       -0.09535283900752
N           -1.20894286281398        0.97634049155096       -0.03302771768255
C           -2.09766841853102        2.12163394897644       -0.02703649557695
C           -1.79185923681106       -0.24721691335682       -0.04682179853500
O           -2.99675732227205       -0.40443294759166       -0.05622752453718
N           -0.92729612696493       -1.36288573298906       -0.05111178608035
C           -1.56348041700534       -2.66298498877179       -0.06324432990873
H            3.67230006489753        1.64076408680509        1.08052412513277
H            3.98291873259029        1.47308055101915       -0.63918705800824
H            2.44988183167502        2.18906839853405       -0.05182396141295
H            3.58439320359362       -1.86102991136258        0.02388268295125
H           -1.47233133529661        3.00808636812047       -0.05642518413988
H           -2.73232746215875        2.06985433082491       -0.88655061037113
H           -2.66918252855683        2.12852182020569        0.88775623111276
H           -1.30333607258430       -3.23757687132184        0.82776213466458
H           -1.29285361840959       -3.22222299628800       -0.96034436402626
H           -2.64241066131659       -2.48817694808859       -0.06909914779435
H            1.33757536005209       -3.04770546800831       -0.02484800578947
