25
 energy: 29.837284423032 xtb: 6.6.1 (8d0f1dd)
C            3.88457221468218        2.97356636565406        0.19852712644150
N            2.26185572242081       -0.61460271277165       -0.02499462463445
C            2.33106387809563       -1.90308165447620       -0.02846108493971
N            1.08937937318879       -2.50217401793199       -0.04184372524097
C            0.19167595227005       -1.48295090984695       -0.04769816012705
C            0.92940027232415       -0.30888688983152       -0.03753376164447
C            0.27709329187632        0.97610667022240       -0.03704308208881
O            0.79405771552517        2.06751114687376       -0.03137230197379
N           -1.12512708008818        0.84051270271406       -0.04382036989852
C           -1.91583522798273        2.06433388349314       -0.03896113980946
C           -1.86470724039462       -0.32031119058520       -0.05200591203800
O           -3.07513950925999       -0.31074881351780       -0.05350330293364
N           -1.16385918929491       -1.52620452784320       -0.05901947474355
C           -1.89533704507398       -2.77440138045513       -0.07093331970904
H            4.23216855806587        3.22691909315003        1.17695715242218
H            4.56626491126610        2.99567625055806       -0.62461133746910
H            2.86556987307808        2.69133934041300        0.04744448412992
H            3.24131732563833       -2.46634033547790       -0.02128693411118
H           -1.23040483195557        2.90726475366136       -0.09265922038453
H           -2.59280708371523        2.06780681057433       -0.89243770064632
H           -2.50954003510352        2.11919968273775        0.87326107571271
H           -1.65755317301180       -3.36696390073229        0.81450116336572
H           -1.66455534075154       -3.34656910157174       -0.97164775319172
H           -2.95624732447268       -2.52736298205180       -0.06411282390866
H            0.89890829764570       -3.49060949421438       -0.04971106038453
