25
 energy: -1.144299609096 xtb: 6.6.1 (8d0f1dd)
C            3.20628493030103        1.31857737314407        0.10455398111268
N            2.38699430896254        0.08686934277310        0.04008802723227
C            2.64167230418255       -1.30372752535989        0.03584799989686
N            1.43286480884395       -1.99714599765769       -0.00708103464220
C            0.42044917692671       -1.11204024095554       -0.01828418671464
C            0.97609928830537        0.16306071474152        0.00457863697864
C            0.15966478771478        1.31006821205084       -0.01897401968307
O            0.54393314157492        2.48025029757204       -0.04526338219748
N           -1.23428776044622        1.00385907087704       -0.02982660312332
C           -2.14677570586101        2.13049363680637       -0.03768370445748
C           -1.80817616706828       -0.22767210250176       -0.04700093420752
O           -3.01187454162051       -0.39721865880066       -0.06593750077293
N           -0.93543758305481       -1.33412688213839       -0.04355450440855
C           -1.52878369275886       -2.65215339153415       -0.06198315103664
H            3.70109180798151        1.47184362945698        1.07233818808548
H            3.99974721992245        1.30089094820963       -0.65760753538439
H            2.55013181694059        2.16793725159195       -0.06822207206197
H            3.58836659938178       -1.78135131333251        0.03944506340487
H           -1.55015721194618        3.03711711101640       -0.03913893608204
H           -2.74486420312958        2.08515103261500       -0.93169542647613
H           -2.75858102798838        2.10783592999615        0.85475044445279
H           -1.25367318038523       -3.21980683499394        0.82952322001823
H           -1.23540926434988       -3.20131376192934       -0.95894704694002
H           -2.61107693821197       -2.51080267320530       -0.07265872332692
H            1.31576395753687       -3.00021881916416       -0.02141681194425
