25
 energy: 37.889052859942 xtb: 6.6.1 (8d0f1dd)
C            3.41046985390284        1.96249412032112        0.24664518116330
N            2.36585675389055       -0.21904153957513       -0.06593102503806
C            2.54467474027586       -1.50475234480849        0.04566310642619
N            1.35184078384066       -2.19987697265406        0.05399010553888
C            0.37213635959085       -1.26812466423512       -0.03561874397250
C            1.00709407766102       -0.02732848491356       -0.07791233252743
C            0.21927261883449        1.17241097338370       -0.15431406931122
O            0.61195320943535        2.30862984962371       -0.29997752336696
N           -1.16134226233256        0.92352508059753       -0.05609005847731
C           -2.01523351915706        2.10130722357771       -0.00712976507589
C           -1.78741614138382       -0.28921242647908       -0.04574519020047
O           -2.99681421818551       -0.38133413335010       -0.01673076319582
N           -0.97928317599878       -1.42981855276796       -0.06826254660731
C           -1.67933056534993       -2.69274242861571       -0.06793078960482
H            3.78543392647784        2.11359869591362        1.21237539604022
H            4.02327216533820        1.92485054344981       -0.60576287778195
H            2.43857130104211        2.34369990358645        0.05414818255514
H            3.49862142616238       -2.00427569724161       -0.05473533825168
H           -1.32542835103073        2.93680416063720       -0.14657506907515
H           -2.81794820377710        2.01859296321359       -0.72052379406891
H           -2.43449704192800        2.18865929176094        0.98855092693509
H           -1.44411292775749       -3.27806550924841        0.82189123962188
H           -1.45224526624255       -3.26477274757011       -0.96738419516499
H           -2.73763444176262       -2.42426549291879       -0.06028483244562
H            1.25741554323378       -3.20187220085449        0.07471253137436
