25
 energy: 38.780091153093 xtb: 6.6.1 (8d0f1dd)
C            3.36412257278792        1.88791503978653        0.22350947816225
N            2.37576665187685       -0.18657903464700       -0.05787087253039
C            2.56096510564719       -1.47803583259249        0.07638649398252
N            1.37003625167637       -2.17333411257752        0.05996641896924
C            0.38543333456916       -1.24788092250014       -0.03027354914774
C            1.01362337252055       -0.00286112573973       -0.06359627670783
C            0.21740657495474        1.19061449147076       -0.12938157077306
O            0.59706851444089        2.33484217298231       -0.26244072582024
N           -1.16675270654496        0.93247901668020       -0.05207441774090
C           -2.03070966621916        2.10279816830564       -0.01275339921350
C           -1.78382759120395       -0.28246683533293       -0.04680557264541
O           -2.99220342879103       -0.38328483156210       -0.02782019140644
N           -0.96582025943056       -1.41940504077721       -0.06143042726207
C           -1.65627211303511       -2.68690393491330       -0.06573203227393
H            3.73331234941171        2.03497686696533        1.19137055943973
H            3.99110265259316        1.84315044129618       -0.62246829682960
H            2.40785007252664        2.31035440864683        0.03119050022406
H            3.51178904311867       -1.97830228943937       -0.01657687516612
H           -1.35260265912686        2.94887478345483       -0.12323479423787
H           -2.80358023402167        2.02601212273750       -0.75690697394756
H           -2.48058022900655        2.17381623288689        0.96712716602031
H           -1.41648531061235       -3.27053090540550        0.82392866601792
H           -1.42043628311217       -3.25622411845521       -0.96526740796192
H           -2.71832362528308       -2.43519924884776       -0.06156334230066
H            1.27487452273041       -3.17476699030576        0.05887737945397
