25
 energy: 34.105816351564 xtb: 6.6.1 (8d0f1dd)
C            3.64371380236614        2.32978910466460        0.30730404084984
N            2.30828431712614       -0.37659918415351       -0.04327847304853
C            2.45033909725048       -1.65418432336174       -0.03044473976282
N            1.24751407467040       -2.33217825247537        0.00631079449055
C            0.29400424214441       -1.36563926361227       -0.04808094989118
C            0.96557415482178       -0.14901113063803       -0.08164632745956
C            0.21579120539005        1.07472426603143       -0.16754166225812
O            0.66623426614241        2.19218689565142       -0.26360573672869
N           -1.15977065688634        0.88053280463051       -0.07799246855902
C           -1.96905949316920        2.08466973163754       -0.03580387997120
C           -1.82718068001904       -0.31064334867669       -0.05084188303895
O           -3.03730901745599       -0.35357990270995       -0.01583405542073
N           -1.06077830175941       -1.47473145980332       -0.07621123905117
C           -1.79201370711319       -2.71672855939730       -0.09892931525651
H            4.00599017682227        2.53342586847851        1.27272250043803
H            4.26926699424368        2.31912049480622       -0.52739983980591
H            2.61958820006132        2.50122564133332        0.09773654950389
H            3.40302316511951       -2.12917602960770       -0.05163110315448
H           -1.31102231380155        2.89403778560212       -0.32625734195537
H           -2.80554403907369        1.99010170978027       -0.72358467028027
H           -2.28939263472196        2.24802103940265        0.98682773462695
H           -1.55268848796202       -3.33489674629986        0.77013820675926
H           -1.59911240390381       -3.27670238419093       -1.01379776990178
H           -2.84588025554966       -2.42702359363675       -0.05290370880899
H            1.14230254875786       -3.33599087050484        0.05753999857281
