25
 energy: 34.353209337822 xtb: 6.6.1 (8d0f1dd)
C            3.60146373166846        2.25634744900695        0.29546366751761
N            2.31765787849537       -0.33882849530696       -0.04952456591447
C            2.46761824033708       -1.61438013041488       -0.03180280399230
N            1.26940403026448       -2.30288345644984        0.00945606296947
C            0.30746781036227       -1.34532002167674       -0.04838455549381
C            0.97114726609175       -0.12369084017732       -0.08534298255313
C            0.21577328879101        1.09360068918287       -0.16872055983736
O            0.65558361469737        2.21292310003522       -0.27078057018485
N           -1.16219457230976        0.88911149951972       -0.07736142482631
C           -1.97459234155414        2.08996241942469       -0.02536181887120
C           -1.82173278822090       -0.30552447311069       -0.05530434909093
O           -3.03131880698035       -0.36040846154409       -0.01394973570430
N           -1.04596397609535       -1.46602916690606       -0.08414794717058
C           -1.77088039346139       -2.71208208656458       -0.09156262776567
H            3.96918628201798        2.43975222228559        1.26554913394113
H            4.22988796007167        2.23229364441003       -0.53621561775695
H            2.58536115874186        2.45922133241358        0.08724072580914
H            3.41843208984188       -2.10093175310400       -0.06779415183637
H           -1.31024148392429        2.90574914270179       -0.28683214368819
H           -2.81012846022511        1.99599284930891       -0.70317989104187
H           -2.31781158025387        2.23770531974882        0.99417127014900
H           -1.54189963742454       -3.31774966572707        0.79076755927467
H           -1.57262465041524       -3.28501589828929       -0.99551007321934
H           -2.82443537613609       -2.42096455085753       -0.05858773611572
H            1.16608437371533       -3.30609550436540        0.05532475205656
