25
 energy: 30.785108155804 xtb: 6.6.1 (8d0f1dd)
C            3.83839665678612        2.80431809615715        0.28107160531409
N            2.26473364834978       -0.57180328309941       -0.09212694289422
C            2.34990695688431       -1.85550233430269       -0.06959742582336
N            1.11924488881060       -2.47269314408996       -0.03610412868926
C            0.21064048135090       -1.46282530077885       -0.04316401933429
C            0.93369587761531       -0.28041896129584       -0.07269355616945
C            0.26491641641738        0.99071189229334       -0.07002846821171
O            0.77588214388894        2.08364566924829       -0.05921793830082
N           -1.13269872512785        0.84692419181728       -0.05145316633609
C           -1.92654318131455        2.06813397516685       -0.04054941666177
C           -1.86067983496786       -0.32096515075572       -0.05247679779043
O           -3.07193365919777       -0.31559091002867       -0.05156180315987
N           -1.14607163670623       -1.51794226004034       -0.05665675756164
C           -1.88070514139628       -2.76270292204053       -0.07193958765764
H            4.19676099169236        3.03464961931969        1.25887313392735
H            4.49139162111838        2.77949157138648       -0.55481562785387
H            2.80090240702113        2.69672416212173        0.07377496894835
H            3.28903604558298       -2.36755428032555       -0.04668623340963
H           -1.24541688812717        2.90523506960366       -0.16177624766318
H           -2.62115122119242        2.05675232225347       -0.87975118779412
H           -2.47139071435184        2.14798653321721        0.90110789235477
H           -1.64024278054883       -3.36741300253473        0.80385236345428
H           -1.66625819309621       -3.32849627083593       -0.97961492291141
H           -2.93836645466918       -2.50473117412221       -0.04863276414570
H            0.96934832064787       -3.46937570796296       -0.00608561927578
