25
 energy: -42.196243579795 gnorm: 0.006991756445 xtb: 6.6.1 (8d0f1dd)
C            3.28066918264352        1.13840781739253        0.03505938352653
N            2.41146651463785        0.14388571604444        0.01354819145498
C            2.56601643995287       -1.09280732509041       -0.51075748040374
N            1.41368409124898       -1.81146104146491       -0.38543563484711
C            0.47530538173345       -1.07767086072672        0.25704353944820
C            1.06962185635646        0.24387490539471        0.56921179190395
C            0.18375986889984        1.34234945189876       -0.09318657389961
O            0.65183888089332        2.32536822808083       -0.60491404481418
N           -1.15195547063862        1.06155357735133        0.01332140804152
C           -2.10146502275370        2.13114092870291       -0.27391039537782
C           -1.72658055516005       -0.17125898656388        0.32699601254878
O           -2.90515593678053       -0.30261835079216        0.53089761188006
N           -0.85894127999221       -1.27461652667697        0.29983433402351
C           -1.43756994136794       -2.60391871229520        0.23392342239941
H            1.09402800112262        0.50776476965501        1.63671795020132
H            4.24039737699519        1.00570421842039       -0.42740313637577
H            3.00155262844889        2.07949474629852        0.46322320530773
H            3.46438396720069       -1.45769320226714       -0.96115240830370
H           -1.56013962428059        3.07268018889689       -0.31883990613281
H           -2.60073343928399        1.94929252719081       -1.22594720286275
H           -2.85399374909979        2.15621001339985        0.51388545654202
H           -0.91351996709975       -3.27495260347153        0.91252941102591
H           -1.39816426931138       -2.99514969842835       -0.78461820290420
H           -2.48139037077624       -2.52289943414477        0.53615048966146
H            1.29731695051072       -2.75444180520474       -0.72500560414419
