25
 energy: -42.196938638966 gnorm: 0.005662961790 xtb: 6.6.1 (8d0f1dd)
C            4.38672643178593        0.56149881363380       -0.01701325267084
N            4.04640389700198       -0.63609026349503       -0.26142427205554
C            3.21932381898783       -1.58888671243939       -0.01501554651280
N            1.87375830132463       -1.44201620920234        0.07180165609132
C            1.22230596920826       -0.24309591147220        0.05192457287510
C           -0.12334643141777       -0.01956075657244        0.02475786681211
C           -0.64650879821609        1.36213650167364        0.01667385034127
O           -0.02309205814028        2.39815298468094        0.02571604911324
N           -2.02014700957328        1.22699992855897       -0.00430218003624
C           -2.95705368635019        2.31836342445234       -0.01755222974809
C           -2.39063023753784       -0.10587177720910       -0.01044237787192
O           -3.50309085048715       -0.55533327360982       -0.02927508180918
N           -1.21060626902603       -0.85564505547040        0.00891982871358
C           -1.24068702375747       -2.29221713310885       -0.00319895605639
H            4.20581902462302        1.04294956884188        0.94020198326620
H            4.96116059654197        1.09080331054557       -0.75678784007096
H            1.84278018647553        0.64475306817948        0.03827432871532
H            3.60202286983298       -2.60267465829627       -0.01673579997915
H           -2.39021978592983        3.24863131000528       -0.01155349564293
H           -3.58246725341307        2.26512462787719       -0.91073102050855
H           -3.60433062370127        2.26766514960252        0.86010811049965
H           -0.78071311946631       -2.70189183768283        0.89904719967706
H           -0.75310395915204       -2.68668344600134       -0.89815759796876
H           -2.29021682582881       -2.59098744660950       -0.02201824402785
H            1.31634435031567       -2.28788566528011        0.06795406675423
