25
 energy: -42.031123746361 gnorm: 0.002063771158 xtb: 6.6.1 (8d0f1dd)
C            3.41616440909537        1.25128335737783        0.05440317142016
N            2.46868181584492        0.16821909111359        0.03485818160203
C            2.74132797297450       -1.13222407617175        0.07332455508807
N            1.60007975572374       -1.84566871340487        0.04360113810655
C            0.55277210696570       -0.96338196974290       -0.01667045519966
C            1.10147581989976        0.31097783239358       -0.02004227814461
C            0.28320863267322        1.50086305574990       -0.05602482652799
O            0.66820366766731        2.64794429124311       -0.07521110759199
N           -1.09413245864159        1.14581389670675       -0.06130907550476
C           -2.03307014571242        2.26081573577313       -0.06811135874867
C           -1.61308779936823       -0.06315767181173       -0.06230686209941
O           -4.08491789966951       -3.11873504713154        0.08485127044282
N           -0.80267393661590       -1.18158942529885       -0.05455502361646
C           -1.35254031260998       -2.39688658837500       -0.08557993853490
H            3.93764194003358        1.28133485881632        1.01197394688782
H            4.15045274625167        1.12585667069220       -0.74099610380306
H            2.88027585648927        2.18921596108148       -0.08761664921497
H            3.72471722981665       -1.55807818515138        0.12248948048616
H           -1.46981168092611        3.19091156984471       -0.02773496682434
H           -2.63402326323360        2.23194167795214       -0.97501414520577
H           -2.69583947800925        2.18717613301078        0.79147031726052
H           -0.72300311187685       -3.26780887478023       -0.08519004089666
H           -2.43973670247499       -2.50650541164102       -0.08277694101129
H           -4.96759059731823       -2.78515629587700        0.25170232360714
H            1.54585694711751       -2.85492333076495        0.06163700591829
