  25
        -42.17279027
 C          4.8678855477        0.2215308886        0.1381517971
 N          3.9847694454       -0.6237443277       -0.1344838559
 C          3.1486302546       -1.5827644029        0.0059094579
 N          1.8224935616       -1.4313628425       -0.0054084516
 C          1.1732549017       -0.2152367696       -0.0168537109
 C         -0.1618462022       -0.0111607355       -0.0108775680
 C         -0.7006533084        1.3859009089       -0.0180180302
 O         -0.0706607959        2.4104929215       -0.0233417537
 N         -2.0624811987        1.2363833933       -0.0070651169
 C         -3.0131402496        2.3211688861       -0.0115587466
 C         -2.4279870915       -0.0980201271        0.0095918045
 O         -3.5324297975       -0.5557182073        0.0307234808
 N         -1.2412591955       -0.8451185151        0.0050382171
 C         -1.2889209786       -2.2847432068        0.0181129139
 H          5.1529988396        0.4517004960        1.1610307653
 H          5.3591924274        0.7526404187       -0.6667268197
 H          1.8157637598        0.6506703785       -0.0333214924
 H          3.5354552064       -2.5972919875        0.0099844506
 H         -2.4840804689        3.2344982368        0.2538628412
 H         -3.4584624157        2.4309213799       -1.0016848065
 H         -3.8035478554        2.1121305676        0.7082087786
 H         -0.8173964286       -2.6878089217        0.9168428772
 H         -0.8315227171       -2.7031508711       -0.8809869007
 H         -2.3445458638       -2.5614811843        0.0288821906
 H          1.2467653075       -2.2651830196       -0.0049983818
