25
 energy: -42.031392000437 gnorm: 0.000778590704 xtb: 6.6.1 (8d0f1dd)
C            3.42401056761872        1.26655236186072        0.07739538961797
N            2.47611405417198        0.18460775114756        0.02864653581314
C            2.75394229667145       -1.11573257101464        0.01352376911157
N            1.61453557984152       -1.83186295442950       -0.02113623433643
C            0.56339520935098       -0.95181953503137       -0.02988710432719
C            1.10826678043648        0.32434305452970        0.00078489463478
C            0.28620622653384        1.51233342052284       -0.00706255542374
O            0.66945530560279        2.66011680021614        0.02001094200126
N           -1.08901090364901        1.15423604242112       -0.05794027267357
C           -2.03136352691896        2.26505328256816       -0.08288944133293
C           -1.60274013101167       -0.05598439656637       -0.07812258044810
O           -4.13641320963409       -3.06777127099136        0.21586787103029
N           -0.79158974652027       -1.17237259724692       -0.05521593145122
C           -1.34466697775651       -2.38664666238091       -0.05912406279339
H            4.00648725369976        1.21688433543994        0.99790200994834
H            4.10495562256272        1.21247983194902       -0.77199904795908
H            2.88119523507078        2.21073652758930        0.04723990093853
H            3.74019646756079       -1.53723465519327        0.02748531391400
H           -1.47143809248253        3.19453275333537       -0.16649698178424
H           -2.70619078226545        2.15522353777709       -0.92850551144257
H           -2.61881907507559        2.27273246908447        0.83361502989583
H           -0.72001829255355       -3.26039074073096       -0.04240536460845
H           -2.42675404712392       -2.47972448362235       -0.04474185916840
H           -5.09132875584321       -3.11102527141825        0.15628399480028
H            1.56200445600758       -2.84102848909526       -0.04205708585939
