25
 energy: -42.447436863719 xtb: 6.6.1 (8d0f1dd)
C            3.27970773968350        1.25667445196860        0.11399080923633
N            2.36091275110354        0.14738144562871        0.07272461725324
C            2.65895607564018       -1.15395792812765        0.07556523098525
N            1.52418132565497       -1.88458618716150        0.05837439488748
C            0.43458110700100       -1.03641670585549        0.05328117709100
C            0.97898273776009        0.27079989843182        0.05030183271260
C            0.18024310731442        1.43034595034113       -0.00305231617788
O            0.56838989616294        2.60074447060443       -0.00281423913762
N           -1.18706742832453        1.09078419775305       -0.05860414979138
C           -2.13477168279320        2.18606133075061       -0.15203506963472
C           -1.74952338352563       -0.15481384546637       -0.07060154141143
O           -2.94312835744456       -0.32323203123774       -0.17464642871543
N           -0.88920138961361       -1.29997065762783        0.02656085610486
C           -1.50599657053756       -2.51327361681385       -0.08856419485416
H            3.85547504981102        1.24917118907419        1.04007244595930
H            3.96808978260659        1.22037041067709       -0.73209614716569
H            2.70270817718288        2.18326093720780        0.06555912876151
H            3.65282015030155       -1.56241376601687        0.12232031562934
H           -1.54971358406161        3.09930296802184       -0.11669865171718
H           -2.68925001039191        2.13370105484491       -1.08854546947083
H           -2.83701682293287        2.15040980947184        0.67875518749890
H           -0.88194174547862       -3.31361228917024       -0.45631353195322
H           -2.49809145802963       -2.43053895140403       -0.52400190593447
H           -2.97610377934866       -4.67073019280310        0.40261944744664
H            1.49437833196771       -2.89552286607334        0.07722058882015
