72
 energy: -99.318048019298 gnorm: 0.002782301482 xtb: 6.6.1 (8d0f1dd)
N           -2.01683811825255        3.04646978930130        2.13950085149242
C           -2.05022365942282        2.17200150507745        1.24696801510344
C           -3.21727195418394        1.96728265002232        0.31792397483022
C           -3.64607864723536        0.51082657669406        0.36104342270821
C           -4.45761718871440       -0.01637108994507       -0.64273494741618
C           -4.89948135566725       -1.33005458904331       -0.60235726115442
O           -5.68193340966983       -1.91743357612618       -1.52616498001082
C           -6.14051796809741       -1.16854558375454       -2.62725322216341
C           -4.52107119423233       -2.16391914531308        0.48787872126164
O           -4.98908159768636       -3.42280994032523        0.44198576901303
C           -4.68788275456275       -4.31021012663066        1.49408004310381
C           -3.72701263842699       -1.62651723635720        1.49125558183145
C           -3.30123462783587       -0.30899569753287        1.42885601865444
C           -2.70192446076847        2.35023513341379       -1.09439936282166
C           -1.66045620509111        1.39390990361768       -1.68498968569138
C           -0.27744602163633        1.63228356923907       -1.18678505052863
N            0.51485286973960        0.68782881996536       -0.94905770373160
C            1.86819546517576        0.91049493419333       -0.55013391712296
C            2.81134590424890        0.41796138474467       -1.66484247107199
C            4.20890799192188        0.25044183251435       -1.15105805253059
C            5.16670498887965        1.22749256092851       -1.39251561947883
C            6.45579641286676        1.10273443348884       -0.90284674451491
C            6.81930382920864       -0.00686828194665       -0.15599855702568
O            8.03107628564841       -0.24190638963504        0.37240687359868
C            9.06207629308703        0.70075515612153        0.18071491913933
C            5.84951793880516       -1.02903068412519        0.10144989292608
O            6.33487612783634       -2.05439565109348        0.82205592478268
C            5.51712043324037       -3.14948459632405        1.15585953549567
C            4.57227893373093       -0.86041554086567       -0.39853164354059
C            2.55704767131212       -2.58623213468933       -0.14497137052084
C           -4.46179239943443        2.83539478585792        0.67634585122046
C           -4.99021273700446        2.50878849860883        2.07098581200315
C           -4.21101282792022        4.33679156210589        0.56630104237575
H           -4.75604963643335        0.60920605421884       -1.46730281632894
H           -6.74917820676985       -0.31750636227393       -2.30731219865701
H           -6.75603085012563       -1.85233713845016       -3.20859654180775
H           -5.30992214468466       -0.81472797245966       -3.24589466285585
H           -5.08098434703419       -3.94765101831942        2.44844209433731
H           -5.17696585052931       -5.24712877843066        1.23488172652006
H           -3.60981515642199       -4.47535350814670        1.58194137831860
H           -3.43964381812369       -2.22856881073812        2.33765062816239
H           -2.70734471782160        0.08111608069943        2.24058770653494
H           -3.55765396662262        2.40090391699792       -1.76758807673365
H           -2.26981326524646        3.35094734667245       -1.04419183557654
H           -1.93186816489258        0.35102145703448       -1.52064911196853
H           -1.62599368916202        1.56251027660542       -2.76659520115603
H           -1.21223128262645        1.49617436607184        1.02452542748324
H            0.01870985538558        2.68746578273613       -1.07956123939042
H            2.04340015302519        0.32206990168759        0.35556123799689
H            2.07614614644461        1.96946632229359       -0.32765508688907
H            2.79574657232188        1.13915186090199       -2.48295232555769
H            2.43039298048932       -0.53019132758312       -2.04540141156632
H            4.90345247681896        2.09557096706637       -1.97651279861766
H            7.17506251145797        1.87752837906339       -1.11214394468842
H            8.79880489816058        1.67231685244641        0.60869780177360
H            9.30166021643134        0.81993889327099       -0.87972300570465
H            9.92652302423328        0.29716213054520        0.70398180620260
H            6.16617899677590       -3.84181895868193        1.68915587098792
H            4.69789551760806       -2.84635194647616        1.81288164172775
H            5.11886475076608       -3.64027330411856        0.26489040248486
H            3.70154027982539       -1.67965369204577       -0.23375053464108
H            2.82591764471143       -3.37806958637906       -0.82360945215054
H            1.71583226357882       -1.99570406005058       -0.45891070998860
H            2.53342071992730       -2.87526073543810        0.89203630935323
H           -5.23915694220490        2.56511678865244       -0.04878131618038
H           -4.26127882281022        2.79776498542904        2.82243491477065
H           -5.20524867143689        1.44789982791512        2.17446939466660
H           -5.90788036967768        3.06216298581219        2.25249344551533
H           -3.39011091477590        4.62695105201082        1.21506157936704
H           -3.99068889224607        4.64037222200246       -0.45331840218905
H           -5.10264232620826        4.87068090665973        0.88508539904435
H           -1.17254275499468        3.13273453309059        2.69596508980489
