25
 energy: 109.376804140893 xtb: 6.6.1 (8d0f1dd)
C            3.31265286240517        1.15209656369347        0.10644687349891
N            2.36159076202469        0.06336554270436        0.07068972892683
C            2.70648671791556       -1.21278019573411        0.06557166990895
N            1.60732954018967       -1.98068560085115        0.07694013300638
C            0.45308135731130       -1.15222123448684        0.07707425141704
C            0.99028569408238        0.17685134934993        0.08432855566377
C            0.20056374031824        1.40935364285941        0.03978266279572
O            0.72892324073646        2.52174410440831       -0.09161440182933
N           -1.13748398561369        1.13399906641030        0.15320394897117
C           -2.04357602322833        2.23964448218087        0.16767077290090
C           -3.67430301789804        0.50262675905014       -1.29674555180251
O           -4.13373753488995       -0.48345514248755       -0.99558846359004
N           -0.77437461703530       -1.48304184803580        0.07411913742799
C           -1.28988438731125       -2.80793196082880        0.04339126335511
H            3.80647098669232        1.19670809005831        1.08133039548067
H            4.07334794641092        1.02434571349867       -0.66589933521845
H            2.78173403605864        2.09199510831825       -0.05858654969198
H            3.72269562846686       -1.56162063568489        0.06882248153364
H           -1.71976657823328        3.11976621888239       -0.41674612428340
H           -3.04863946344611        1.98723723626377       -0.24682813674363
H           -2.11078532780816        2.54106104327336        1.21534102300602
H           -0.93312178581819       -3.38487554586500        0.90110074997717
H           -1.02132805333952       -3.34373059812966       -0.87433140947610
H           -2.37448075482187       -2.70384248296023        0.08258882006388
H            1.61462616732062       -2.98437564498944        0.05455223120179
