25
 energy: 54.847966081800 xtb: 6.6.1 (8d0f1dd)
C            3.44937876582515        0.93924994773169        0.16005460897381
N            2.50610454562411       -0.13931165975436        0.03227560530942
C            2.82308481830809       -1.42048083308174       -0.10182776596725
N            1.68596461995544       -2.16289120491731       -0.12956808066420
C            0.61597528155732       -1.29831701397699       -0.00046682214607
C            1.15269473868528       -0.02184077796552        0.09315643393633
C            0.26384587048913        1.15700419132633        0.23401609575272
O            0.73604757734485        2.28023158924843        0.30863105545868
N           -1.03611204327328        0.84141355164359        0.29087806593507
C           -3.48805002668481        3.41887157057176       -0.41788801120556
C           -1.61240862615935       -0.31817952372610        0.21753174900531
O           -2.76965261989285       -0.62906277517028        0.26053679712828
N           -0.67910878808323       -1.54319962892260        0.02990064219660
C           -1.22313072220684       -2.86705033469046        0.00412566165597
H            3.97566415813378        0.87451974163151        1.10518458373217
H            4.17663652171636        0.89692196343690       -0.65032187837446
H            2.91464217432879        1.88796587442243        0.14281741030466
H            3.80950396808404       -1.81431148769492       -0.21608950256884
H           -2.70374885062935        4.13941565461228       -0.39508728433852
H           -3.82649628540860        3.02770693551950       -1.35015934262475
H           -3.97413840154031        3.13153381543229        0.48436074414647
H           -0.83961866432200       -3.45170154814550        0.84588350448615
H           -0.96093915755915       -3.35851167745477       -0.93585326992023
H           -2.30836793256771       -2.78828766534525        0.09704518900540
H            1.65092671463834       -3.16723126651665       -0.22779318662911
