25
 energy: 58.005968242305 xtb: 6.6.1 (8d0f1dd)
C            3.45025275708274        0.93268771074565        0.19522315329356
N            2.44140682252630       -0.07590957637283        0.00968655083241
C            2.74893243338066       -1.35629037977520       -0.12807788066420
N            1.61357010488881       -2.09278665768506       -0.15577884759058
C            0.55218012373479       -1.22203552807749       -0.03806070313387
C            1.08582534285553        0.05277925018422        0.04955836166770
C            0.18173891704140        1.22875284502988        0.21103240703923
O            0.65412833689804        2.33669797660681        0.40775032738817
N           -1.12480249992178        0.94298306494756        0.16900992317192
C           -3.23099555468869        3.10731791083535       -0.39349513049899
C           -1.67498395424679       -0.23214289224668        0.20194432078910
O           -2.81382642828313       -0.55766988750213        0.38723952097116
N           -0.74336888817012       -1.44950642533944        0.00860505413411
C           -1.24187254182511       -2.79072561561225        0.02902200277148
H            3.97086830492595        0.70483644843819        1.12258632890321
H            4.16717523678342        0.87818346160668       -0.62307427752495
H            3.00805712275735        1.91218125035888        0.25690748497359
H            3.73277118354829       -1.72439628152507       -0.27778012268084
H           -2.50448952625423        3.86585887942433       -0.38513273452023
H           -3.62008164312420        2.77800621538751       -1.31936567877089
H           -3.75013124706524        2.86134056459083        0.48807339776385
H           -0.79950904018008       -3.33327787119583        0.86856255981300
H           -0.95813257257109       -3.27810789956827       -0.90275899808809
H           -2.32892424504624       -2.79053983019588        0.12334516611448
H            1.60411291413684       -3.09399293812034       -0.23689067499322
