25
 energy: 56.119722952359 xtb: 6.6.1 (8d0f1dd)
C            3.45278144453088        0.92746587047545        0.18678559687939
N            2.47415623338994       -0.11486865337561        0.02627894857623
C            2.78507827521993       -1.39561965569389       -0.12438977916131
N            1.64813570454597       -2.13404417182526       -0.14808476753342
C            0.58514432855289       -1.26200675718230       -0.01925898478757
C            1.12084176528798        0.01271445949826        0.07255935406406
C            0.22366814750250        1.19049822824537        0.22660172257570
O            0.69511795500167        2.30536422837136        0.37524479332473
N           -1.07950539695389        0.88770071360333        0.22518861772929
C           -3.36073733362419        3.26480859384727       -0.40789765827818
C           -1.64647875515345       -0.27967980599296        0.21345905435015
O           -2.79160204113601       -0.61152835054709        0.34265491356510
N           -0.70939721484436       -1.49797003156482        0.01475801511141
C           -1.22612588986192       -2.83152916148122        0.01839543397434
H            3.98990046522273        0.79052030831388        1.11860680089623
H            4.16935032415088        0.87248138235835       -0.63274379191515
H            2.96374839458334        1.90122524031552        0.20593299126727
H            3.76892853220239       -1.77997724101590       -0.24931079133467
H           -2.60929616626308        4.00630199468832       -0.38990652803026
H           -3.72292689859806        2.90239783914132       -1.33566574783706
H           -3.86382926963156        2.99828048592460        0.48301285340418
H           -0.81652193441986       -3.39363839470503        0.85996422152960
H           -0.96130077451997       -3.32188786714498       -0.91784471359817
H           -2.30630691810965       -2.80444998145214        0.12897418273447
H            1.61681820742719       -3.14038777998405       -0.23942833596617
