  72
        -99.33504288
 N         -1.0134402445        1.3912480775        2.1888537768
 C         -1.2548675104        1.9532506471        1.0567018569
 C         -2.2039595111        1.5290163647        0.1003530812
 C         -3.0740487662        0.4085632074        0.2699897985
 C         -4.0296466889        0.0483209340       -0.7110419071
 C         -4.8429738623       -1.0546283088       -0.5645476646
 O         -5.7865380360       -1.4539128116       -1.4497577846
 C         -6.0411046636       -0.6651495034       -2.5848415545
 C         -4.7202937554       -1.8828443756        0.5867532439
 O         -5.5309487285       -2.9567039851        0.6201290402
 C         -5.4657094157       -3.8326934583        1.7206138006
 C         -3.7985307992       -1.5230448824        1.5648230200
 C         -3.0069350810       -0.4044914317        1.4191440886
 C         -2.1577830433        2.2532547669       -1.2130252671
 C         -1.3192204696        1.4460243833       -2.2580491542
 C          0.0825388194        1.3419899689       -1.8186005240
 N          0.6055911490        0.3138678594       -1.1733005014
 C          1.9704499859        0.3578613227       -0.7060908429
 C          2.9314352858       -0.3903732586       -1.6513556939
 C          4.3399402067       -0.2830579229       -1.1371790454
 C          5.0553881291        0.8921235774       -1.3010636878
 C          6.3395141813        1.0183987396       -0.7957076290
 C          6.9370611435       -0.0337178520       -0.1170878066
 O          8.1735119429       -0.0207202301        0.4182779048
 C          8.9517507481        1.1490461363        0.3139792546
 C          6.2169722691       -1.2484233634        0.0439281725
 O          6.8789585261       -2.2247775567        0.6981129225
 C          6.2670541358       -3.4817987017        0.8615181648
 C          4.9295850037       -1.3472640565       -0.4604598462
 C         -0.1010573556       -0.9335170081       -0.9986357811
 C         -4.9608091924        3.0304721533        1.9537608895
 C         -5.9386153672        3.0766795659        3.0442068364
 C         -4.1285696267        4.1898732612        1.6034775273
 H         -4.1419198966        0.6530918318       -1.5940539463
 H         -6.3515506364        0.3476969556       -2.3084831012
 H         -6.8578831752       -1.1595753025       -3.1083484922
 H         -5.1702701121       -0.6147035238       -3.2457655408
 H         -5.7264000052       -3.3251904917        2.6541832987
 H         -6.1973223973       -4.6130799535        1.5179238511
 H         -4.4729784489       -4.2830575068        1.8158234089
 H         -3.6936889625       -2.1210409407        2.4558767510
 H         -2.3023521403       -0.1340448982        2.1890371004
 H         -3.1519208755        2.4104734723       -1.6292945776
 H         -1.6950455560        3.2339496717       -1.0874707516
 H         -1.7778656719        0.4668511295       -2.3867800870
 H         -1.3578324933        1.9892541853       -3.2054862175
 H         -0.6903663770        2.8504304111        0.7502657074
 H          0.7104645671        2.2132944026       -1.9252296256
 H          2.0137607823       -0.0896803341        0.2911154524
 H          2.2915992954        1.3986465388       -0.6259457109
 H          2.8626470627        0.0569999334       -2.6459533467
 H          2.6376809702       -1.4389392877       -1.7252482632
 H          4.6177016422        1.7206590362       -1.8371153226
 H          6.8712584631        1.9441312447       -0.9417715615
 H          8.4644761415        1.9987395837        0.8024569128
 H          9.1623252666        1.3985702296       -0.7304253258
 H          9.8855989574        0.9257301602        0.8264201312
 H          7.0009197942       -4.0985707359        1.3767911558
 H          5.3615022430       -3.4120691519        1.4726707667
 H          6.0244247393       -3.9383298223       -0.1030571333
 H          4.3734889934       -2.2638143964       -0.3400835023
 H         -0.4047473699       -1.3474252660       -1.9627246660
 H         -0.9885959767       -0.7921177245       -0.3793650413
 H          0.5513689690       -1.6476453207       -0.5051777794
 H         -4.8347506965        2.1203609754        1.3900671790
 H         -5.5552896853        3.6506581470        3.8899164881
 H         -6.2291787453        2.0806435344        3.3715523484
 H         -6.8504878746        3.5952175951        2.7179139582
 H         -3.0903021055        4.0048252143        1.9044914613
 H         -4.1045800946        4.3461370592        0.5232144337
 H         -4.4732011284        5.0946865080        2.0997413068
 H         -0.3141274085        1.8427123310        2.7660037107
