25
 energy: 0.000000000000 xtb: 6.6.1 (8d0f1dd)
C            3.23720132972391        1.16630909158653        0.08434468864950
N            2.29877796055224        0.07527476373246        0.03981602671198
C            2.58028186251803       -1.21425391179017        0.03006175752192
N            1.43813944744728       -1.93419254010258        0.00098261751768
C            0.39035684826767       -1.05887462812143       -0.00790371763344
C            0.93510047688824        0.21347817468824        0.01709077332874
C            0.09450143016486        1.40504290868848       -0.00410946993748
O            0.49712746915594        2.54126690785742       -0.00342325656480
N           -1.25076628431515        1.06271869620815       -0.03085477937476
C           -2.21907191394203        2.15522079838987       -0.05001256521996
C           -1.81739470187490       -0.20012724136556       -0.04692818139228
O           -2.99983858926755       -0.37846413507442       -0.07008877579474
N           -0.92618577614240       -1.30210203518959       -0.03682761236648
C           -1.46982251276835       -2.64643077634382       -0.06029819901142
H            3.71247229913541        1.21471443890471        1.06488839270555
H            4.00791460421487        1.03430799217987       -0.67357688121503
H            2.69909982127087        2.09770098766290       -0.09130154035862
H            3.56654087521359       -1.63682977417947        0.04233139674524
H           -1.67107945562430        3.09322822573871       -0.02552706696334
H           -2.82428927394145        2.09428605349656       -0.95318074103337
H           -2.87644002486466        2.07745706351925        0.81450059976605
H           -1.17061985538665       -3.19584861009707        0.83242224714061
H           -1.14560246782873       -3.17511580834413       -0.95688266944647
H           -2.55549768731684       -2.55659960601237       -0.07459039105944
H            1.38130842369251       -2.94313824728853       -0.01389874052104
25
 energy: -5.346759409838 xtb: 6.6.1 (8d0f1dd)
C            3.23672275450385        1.17401940972232        0.08657579144764
N            2.30065875288536        0.09941745045951        0.03505013895862
C            2.60668435830355       -1.24256313954642        0.03240848826407
N            1.43814787049989       -1.96805251514984        0.00130319098140
C            0.40643526464122       -1.08491682739758       -0.00865104422967
C            0.91429370960709        0.21137308492287        0.01413293266241
C            0.11145445556273        1.37918067333650       -0.00562498982961
O            0.49195334228844        2.55543563007174       -0.00458951517641
N           -1.27310571408217        1.05342972124662       -0.03147753010060
C           -2.22413194621729        2.15456445990823       -0.04958673562681
C           -1.81758746933730       -0.19336824773053       -0.04751397016488
O           -3.01658392805739       -0.38141487764588       -0.07047938292009
N           -0.93884679484631       -1.30113730813902       -0.03747874681306
C           -1.47835910711752       -2.63852425393888       -0.06046046143337
H            3.71728513036331        1.22085461738306        1.06808482683774
H            4.00609147024491        1.03776134925266       -0.67569040002048
H            2.69865288905646        2.10388250950739       -0.08966951423333
H            3.58762096915100       -1.64154101407452        0.04803504557210
H           -1.66733941437463        3.08989747650257       -0.02543878723395
H           -2.83053643615975        2.10078509130828       -0.95335377751052
H           -2.88168013301407        2.08401752232702        0.81625220394985
H           -1.17216322165602       -3.18849630025320        0.83205949593303
H           -1.14729318442664       -3.16809381029271       -0.95653622729373
H           -2.56283983465186       -2.54892138998640       -0.07480253288755
H            1.47146853855491       -2.98885030308692       -0.01240752110929
25
 energy: -2.957220064418 xtb: 6.6.1 (8d0f1dd)
C            3.23300607552984        1.17442441092256        0.08648258601178
N            2.29727638328788        0.09662450824415        0.03397157264334
C            2.60973152301149       -1.24742048362725        0.03532813193720
N            1.45444134344424       -1.99736218863407        0.00149578644144
C            0.41267747430744       -1.10784941784087       -0.00963926328544
C            0.90895735606301        0.19747464342420        0.01249370752530
C            0.10828926372715        1.37144321091554       -0.00614522761584
O            0.48978162477796        2.54958398051786       -0.00432399369830
N           -1.27860102682755        1.05566361630640       -0.03170338463235
C           -2.22901921525938        2.15845713563765       -0.04964395776848
C           -1.82031982245543       -0.19061478984926       -0.04793214665623
O           -3.01982795533960       -0.37878571144199       -0.07077584489682
N           -0.94005360676895       -1.30087917585453       -0.03782888734121
C           -1.48522352631196       -2.63428002054150       -0.06033804048255
H            3.71552827674348        1.21922335838505        1.06689322957281
H            4.00213200679957        1.03880756370182       -0.67644971304089
H            2.69931833217460        2.10744456598536       -0.08788443358334
H            3.59452131137495       -1.63278744775535        0.04990361484734
H           -1.67259456575286        3.09429155166536       -0.02562485605022
H           -2.83607993745907        2.10541756056617       -0.95316411980572
H           -2.88707628602879        2.08875003406445        0.81602900338746
H           -1.17618703399058       -3.18177494478213        0.83238487477796
H           -1.15149484147961       -3.16183152207177       -0.95623409910606
H           -2.56875263400026       -2.54210621149180       -0.07462469216175
H            1.57186352992424       -3.02888545644607       -0.01080021824097
25
 energy: 0.925445519523 xtb: 6.6.1 (8d0f1dd)
C            3.22686668689450        1.17649483439892        0.08760266363893
N            2.29055967223839        0.09672703879610        0.03229427144351
C            2.60439305570405       -1.24752996285055        0.03683341524070
N            1.46868897815733       -2.02665460853249       -0.00054716053657
C            0.41666133351240       -1.13104989400326       -0.01149432824280
C            0.90129533881288        0.18307154771563        0.01104172419787
C            0.10291755723172        1.36117069637467       -0.00545172074400
O            0.48347861135885        2.54082943726194       -0.00263428857504
N           -1.28517046761532        1.05674443511247       -0.03152822094649
C           -2.23191985429836        2.16315705473896       -0.05077428403326
C           -1.82360364011861       -0.18871275356299       -0.04765700473214
O           -3.02342307866297       -0.37719283791259       -0.07069298187243
N           -0.94233783109811       -1.30127934943813       -0.03792494405508
C           -1.49332137647007       -2.63078200271292       -0.05931665895268
H            3.71255573692351        1.21753643397465        1.06667458470706
H            3.99569011179401        1.04301954508167       -0.67651732789037
H            2.69909551236964        2.11382988378638       -0.08289894132488
H            3.58923476654950       -1.62739130726880        0.04667327394661
H           -1.67292476481536        3.09790014819773       -0.02670041482562
H           -2.83827019818918        2.11176646191871       -0.95495036819701
H           -2.89112967795117        2.09601572180700        0.81429096549337
H           -1.18123609636932       -3.17682831259276        0.83300512290484
H           -1.15973614740597       -3.15707035441366       -0.95571114964035
H           -2.57574301776783       -2.53457022254856       -0.07161641938451
H            1.67279353447551       -3.06449090026242       -0.00919516837023
25
 energy: 6.326657183797 xtb: 6.6.1 (8d0f1dd)
C            3.22225402816996        1.17561343072778        0.08518135090803
N            2.28402552837472        0.09619633630010        0.03142274833123
C            2.60026822956284       -1.24670445094679        0.04187628009411
N            1.48511541863682       -2.05420209355672        0.00334191950847
C            0.42145342598257       -1.15192251570779       -0.00984998860044
C            0.89407022362235        0.17014907468880        0.01128641431543
C            0.09691138494104        1.35459209465290       -0.00459072344946
O            0.48163608057239        2.53254545948457       -0.00145886333495
N           -1.29206578835679        1.05984967989072       -0.03145522718827
C           -2.23653470479408        2.16914740307634       -0.04955011305234
C           -1.82667746090877       -0.18572782220889       -0.04864634610066
O           -3.02682149837542       -0.37450362029624       -0.07328526221500
N           -0.94364354768123       -1.30026061688690       -0.03775157171291
C           -1.49968785567540       -2.62676462961274       -0.06077723379072
H            3.71129880236754        1.21444048825545        1.06305032385194
H            3.98943850714221        1.03841879062192       -0.68060008347528
H            2.70076992940624        2.11675495076590       -0.08511450618334
H            3.58518859895890       -1.62144984106186        0.05043588954574
H           -1.67572489274923        3.10302023892884       -0.02468401283899
H           -2.84412102776141        2.12153806667012       -0.95318186893216
H           -2.89638383040359        2.10423782343682        0.81528318183902
H           -1.18726284846382       -3.17234817770724        0.83142997570304
H           -1.16262652246128       -3.15131985999977       -0.95657451667743
H           -2.58127791327805       -2.52916360734381       -0.07506997583981
H            1.77033817450648       -3.10000326861358       -0.00887954203315
25
 energy: 25.083493695448 xtb: 6.6.1 (8d0f1dd)
C            3.21684715470712        1.17395894982159        0.08506083367665
N            2.26440368350941        0.09219579511753        0.03462649970448
C            2.52922617483040       -1.22525351181282        0.03670081006772
N            1.44152347642474       -1.97960966495377        0.00794719864702
C            0.39680628025825       -1.10154416501156       -0.00948294660921
C            0.89017512580326        0.20032956092396        0.01199620802798
C            0.07594713206238        1.38583924695724       -0.00313013048468
O            0.47068097537238        2.54015721137791       -0.00011472992167
N           -1.28630561081690        1.07808161482407       -0.03078725850316
C           -2.24095654323299        2.17932470352886       -0.05109544214923
C           -1.83106991260032       -0.18958504564584       -0.04821020718860
O           -3.03100384548253       -0.35400835823827       -0.07363688161334
N           -0.95524826658502       -1.27907526864947       -0.03727423572998
C           -1.50486050153572       -2.61580748200253       -0.05968692415484
H            3.70539914798793        1.20634139716809        1.06123690580819
H            3.98062037432781        1.03669495321265       -0.68167558932707
H            2.70107674020296        2.12015747811444       -0.08023201079342
H            3.52683260685867       -1.61384894401520        0.04830063883680
H           -1.68359937287332        3.11432361723808       -0.02653102390597
H           -2.84691021361172        2.12701518576152       -0.95489856427723
H           -2.90118061000674        2.11133040337173        0.81255112737267
H           -1.18548483371297       -3.15925466948171        0.82906226638964
H           -1.16249652610016       -3.13889640697260       -0.95207631045184
H           -2.58677659136828       -2.52407979995550       -0.07319480236022
H            2.07740259258367       -3.49201798510488       -0.01595278568773
25
 energy: 22.348633051270 xtb: 6.6.1 (8d0f1dd)
C            3.21281615725195        1.16800154206845        0.08405162300079
N            2.25394860999735        0.09002762317580        0.03372899874230
C            2.50866000570239       -1.22942125015656        0.03765909392421
N            1.42227626973745       -1.98733667999486        0.01181543013054
C            0.38559600865947       -1.09485983513900       -0.00922588277745
C            0.88079683608451        0.20602398921122        0.01036092754987
C            0.06757410731504        1.39461393403203       -0.00535303898808
O            0.46222755194736        2.54694571837574       -0.00042943977062
N           -1.29228877103847        1.08625799343135       -0.03159205014532
C           -2.24672283466473        2.18696784679080       -0.04987448681977
C           -1.83842480055656       -0.18287070185398       -0.05001183759685
O           -3.03872216518857       -0.34500358227037       -0.07510177386297
N           -0.96448717385321       -1.27075151233903       -0.03882171403058
C           -1.51067570928883       -2.60944199738483       -0.06044361034673
H            3.70254257367943        1.19964363125215        1.05994998201533
H            3.97602330132030        1.03329278565322       -0.68394455940563
H            2.70105740841802        2.11715075864637       -0.07919545872088
H            3.50857160259036       -1.61512242962187        0.05145202992664
H           -1.68725369626795        3.12055561703527       -0.02511627148479
H           -2.85317047637587        2.13554478852455       -0.95321999306125
H           -2.90590770658717        2.11870686172318        0.81441396313302
H           -1.18774064082365       -3.15100821256095        0.82800320561185
H           -1.16488003772059       -3.13176738659171       -0.95178534723382
H           -2.59262840217158       -2.52272942615043       -0.07420310017156
H            2.19476777061339       -3.55144295184066       -0.01392566731138
25
 energy: 20.808681163191 xtb: 6.6.1 (8d0f1dd)
C            3.20954514949284        1.16398074533567        0.08429085508261
N            2.24510476003923        0.09039645464899        0.03419086312853
C            2.49295969098493       -1.23136228826588        0.03739377350875
N            1.40589737119486       -1.98826475813955        0.00868850572126
C            0.37660011238887       -1.08716440498272       -0.00844013459021
C            0.87299466406094        0.21324991956712        0.01089205252405
C            0.06170102913383        1.40227436140254       -0.00515478031571
O            0.45491062684624        2.55458881475780       -0.00015704613127
N           -1.29848148895427        1.09396629090057       -0.03161985753888
C           -2.25232394379433        2.19501739147703       -0.05061337597270
C           -1.84461085777782       -0.17538678268220       -0.04972111643528
O           -3.04498013433915       -0.33676559350001       -0.07522814850064
N           -0.97222486919994       -1.26325943758827       -0.03838741439142
C           -1.51602132535760       -2.60279842445439       -0.05950390412432
H            3.69992458608405        1.19542415801002        1.05982967679234
H            3.97183872715814        1.02844749976372       -0.68425548697802
H            2.70651598249653        2.11789391467376       -0.07869173294809
H            3.49254605734103       -1.61773250914084        0.05159927936217
H           -1.69281356961107        3.12837671715577       -0.02597982433952
H           -2.85883545097917        2.14489028951144       -0.95381912477503
H           -2.91213229071801        2.12865899827763        0.81318129428082
H           -1.19132465550018       -3.14379104355538        0.82884525586690
H           -1.16969342046184       -3.12460615680606       -0.95110364537706
H           -2.59768735121071       -2.51688249029795       -0.07256055468605
H            2.30531461464369       -3.61380893910798       -0.01752385958156
25
 energy: 19.932457162055 xtb: 6.6.1 (8d0f1dd)
C            3.20879426369411        1.16107834669838        0.08493278520867
N            2.23855884137690        0.09346939370278        0.03491394919485
C            2.47931683028754       -1.22991007306548        0.03629220205480
N            1.39013958439844       -1.98128851340319        0.00766141055085
C            0.36818573325383       -1.07447058373956       -0.00786115164855
C            0.86871619212184        0.22455903014639        0.01112130019470
C            0.05750035392417        1.41254769872283       -0.00605739117356
O            0.44977215890325        2.56513058455471       -0.00140684645633
N           -1.30310312799675        1.10183186322341       -0.03211292167767
C           -2.25684267919947        2.20156521243656       -0.05085773522682
C           -1.85018336529215       -0.16731081759578       -0.05000268692082
O           -3.05080485013173       -0.32745917268226       -0.07552998266405
N           -0.97951639639297       -1.25459400880029       -0.03831720741585
C           -1.52248022361457       -2.59519548547229       -0.05900589041372
H            3.69987891054734        1.19112208485612        1.06013856924482
H            3.97009442974336        1.02390441806158       -0.68429131540696
H            2.71289085241210        2.11846270848583       -0.07739887721522
H            3.47768589626040       -1.61870839683594        0.05018606132946
H           -1.69511902620689        3.13323870706303       -0.02630706080214
H           -2.86339988209927        2.15135952225148       -0.95399453342351
H           -2.91599245128896        2.13506234492003        0.81341170520056
H           -1.19791908748316       -3.13670468752154        0.82918822580998
H           -1.17663418150001       -3.11799584359809       -0.95032544545832
H           -2.60410221127016       -2.51019589236059       -0.07197030494187
H            2.42393543856399       -3.68395458243257       -0.01864051936520
25
 energy: 19.538355560434 xtb: 6.6.1 (8d0f1dd)
C            3.20875983199162        1.15798385512552        0.08449347112528
N            2.23499213555095        0.09425476711470        0.03689638990929
C            2.46688809600049       -1.23010868943211        0.03529438267307
N            1.37332095257855       -1.97181955549993        0.00579466856911
C            0.36038312754289       -1.05935882641721       -0.00772354947444
C            0.86714108795316        0.23686483978422        0.01197397029865
C            0.05540807738438        1.42367672572228       -0.00563916076268
O            0.44728518138363        2.57654870031495       -0.00075154600826
N           -1.30586281282122        1.11072307817383       -0.03183661151307
C           -2.26105087619167        2.20817650815017       -0.05073264979451
C           -1.85426286146561       -0.15822028306437       -0.04988943050505
O           -3.05499441294582       -0.31702413032367       -0.07545579624428
N           -0.98574573199619       -1.24449626913709       -0.03850920192314
C           -1.52804514223602       -2.58566605096966       -0.05930593382833
H            3.69856077772527        1.18915331211491        1.05998117238476
H            3.96862614001947        1.01979722207947       -0.68531438496080
H            2.71245674384408        2.11451366084750       -0.07998285503679
H            3.46340529201199       -1.62380103576871        0.04975362034755
H           -1.69923443648151        3.13928117571373       -0.02608931375867
H           -2.86771090691413        2.15697070781357       -0.95375438816328
H           -2.92052884215285        2.14062613305457        0.81323152032264
H           -1.20286078051980       -3.12763821439417        0.82852464409720
H           -1.18208461702989       -3.10867385335024       -0.95057793206646
H           -2.60989994590766       -2.50087456458729       -0.07205017011931
H            2.54035595993862       -3.77489727847128       -0.01587425478961
25
 energy: 19.435760014253 xtb: 6.6.1 (8d0f1dd)
C            3.21080021352325        1.15981756962148        0.08406396573846
N            2.23393008046014        0.09849782841023        0.03901884021829
C            2.45369722212084       -1.22862182443987        0.03410482539572
N            1.35453768744278       -1.95934902492601        0.00456511408520
C            0.35186195202040       -1.04122228698600       -0.00760093502232
C            0.86638755732516        0.25134807332910        0.01271523629531
C            0.05250088708648        1.43592894318538       -0.00577637397996
O            0.44350899701923        2.58924277498217       -0.00106871841727
N           -1.30923912376919        1.12062504469368       -0.03198086345143
C           -2.26607595566581        2.21615944205236       -0.05051877659954
C           -1.85926473952271       -0.14822765076540       -0.04991754972005
O           -3.05992190028966       -0.30613892098716       -0.07528897465119
N           -0.99226745618099       -1.23302524728667       -0.03834552722887
C           -1.53069874032683       -2.57632882309088       -0.05939909157721
H            3.70046056568852        1.18863818763384        1.05953021243715
H            3.96836574545401        1.01488656611885       -0.68602011525385
H            2.71604599183548        2.11701860130291       -0.08268792680313
H            3.44705991774974       -1.63124681972879        0.04965067494415
H           -1.70399568734092        3.14677099640363       -0.02596279196475
H           -2.87395050111305        2.16436230400248       -0.95292957637612
H           -2.92606517616464        2.14784456919508        0.81327508671044
H           -1.20237482024229       -3.11807271910737        0.82749927720302
H           -1.18161614092065       -3.09897327776085       -0.94973640395591
H           -2.61327395402711       -2.49563931460776       -0.07208402278874
H            2.64166915390491       -3.89175671600078       -0.01293323882637
25
 energy: 19.491767299387 xtb: 6.6.1 (8d0f1dd)
C            3.21147531610466        1.16385747108293        0.08409538877146
N            2.23150882751309        0.10562818208792        0.03945735244809
C            2.44054362023064       -1.22502963373941        0.03287324061796
N            1.33623568274245       -1.94572416526981        0.00397920513097
C            0.34309237714587       -1.02290894892246       -0.00725175832598
C            0.86502076592898        0.26603446027194        0.01354742777492
C            0.04962503548914        1.44828542296870       -0.00513993515574
O            0.44051487932150        2.60179544070250       -0.00067579294169
N           -1.31190428582470        1.13049956140483       -0.03204094901218
C           -2.26978348806459        2.22433027741051       -0.05070867903699
C           -1.86377122900989       -0.13942420211257       -0.04979856598728
O           -3.06464780267028       -0.29561724845226       -0.07550075250819
N           -0.99882814276791       -1.22224122708852       -0.03751537793806
C           -1.53352176709354       -2.56733608970378       -0.05906060420811
H            3.70120428534087        1.19221979151797        1.05972804295994
H            3.96719650628852        1.01204287997104       -0.68631790346009
H            2.71793261206567        2.12199245631473       -0.08347917633071
H            3.43064656559937       -1.63718811718704        0.04936214054326
H           -1.70631996480990        3.15386826706424       -0.02603048203516
H           -2.87823125519130        2.17199914375531       -0.95306464177710
H           -2.93048445348328        2.15554530008312        0.81289203049023
H           -1.20170027236822       -3.10891531839338        0.82659196480710
H           -1.18106248129085       -3.08961649528705       -0.94826301624726
H           -2.61714996861797       -2.49135956374152       -0.07161638298182
H            2.72370328585122       -4.02495287445327       -0.01113031614340
25
 energy: 19.618314385667 xtb: 6.6.1 (8d0f1dd)
C            3.21166180985717        1.16747225277515        0.08420678411625
N            2.22843109093287        0.11234555178487        0.03940820210954
C            2.42755186142822       -1.22143487475182        0.03184798736813
N            1.31824924478190       -1.93220586806652        0.00340679385073
C            0.33436240868153       -1.00512459267072       -0.00697520474730
C            0.86358033257480        0.28004335419765        0.01418569457907
C            0.04676024985508        1.45976850153418       -0.00470574651020
O            0.43714558380743        2.61358910092968       -0.00076816024556
N           -1.31338404615303        1.13634012955480       -0.03205022440533
C           -2.27232388689276        2.23069391642168       -0.05080566426911
C           -1.86789452900705       -0.13528264615848       -0.04954758442232
O           -3.06941466286174       -0.28658283256577       -0.07552907385093
N           -1.00533048617494       -1.21349132378490       -0.03656493645032
C           -1.53628491111585       -2.55889523373603       -0.05862425677116
H            3.70099612406293        1.19562233297401        1.06026814547545
H            3.96759014839494        1.00881331982563       -0.68497397496715
H            2.71918896073297        2.12623483784785       -0.08430817986524
H            3.41452952364050       -1.64282159168800        0.04853846543651
H           -1.70879466946489        3.16017814071260       -0.02614020815831
H           -2.88134719687670        2.17908964719444       -0.95309907279058
H           -2.93352226623259        2.16269051054698        0.81279590879512
H           -1.20026281175642       -3.09912510999108        0.82600056995818
H           -1.17942054297382       -3.07948955774249       -0.94685892601014
H           -2.62137581636296       -2.48852221902894       -0.07132605259065
H            2.78879490773428       -4.17018506833313       -0.00978821613974
25
 energy: 19.781577540316 xtb: 6.6.1 (8d0f1dd)
C            3.21274229747221        1.17203590261268        0.08439746374581
N            2.22670558766980        0.11956971682718        0.03908403668495
C            2.41919310901965       -1.21554482176081        0.03153675400403
N            1.30258523267847       -1.91727305678113        0.00275271899431
C            0.32692454726527       -0.98735050485530       -0.00711503750935
C            0.86335062702706        0.29399700351022        0.01446586266236
C            0.04594068094492        1.47131213647237       -0.00470692419903
O            0.43573488163283        2.62533513272376       -0.00116098230718
N           -1.31167668334674        1.14172846036042       -0.03225403481138
C           -2.27437960248113        2.23598813088195       -0.05090775755205
C           -1.87194919663072       -0.13084122026851       -0.04963919707473
O           -3.07366405501287       -0.27691543745039       -0.07534934100180
N           -1.01081224432957       -1.20613248808257       -0.03721293815473
C           -1.53268248241554       -2.55526306758040       -0.05867750810263
H            3.70144188148860        1.19927119676852        1.06078616439470
H            3.96994013131507        1.01012622402420       -0.68332874466070
H            2.72336233321684        2.13234335233417       -0.08428380046645
H            3.39860866729877       -1.65147318706726        0.04756416675140
H           -1.71408286852602        3.16741334868957       -0.02632138704792
H           -2.88480588099199        2.18489919174531       -0.95265590163658
H           -2.93675670922763        2.16849495005366        0.81222477913594
H           -1.19353878319097       -3.09304317071997        0.82601839891835
H           -1.17217984389802       -3.07392441311476       -0.94653337722374
H           -2.61882550801411       -2.48771851853494       -0.07125676891471
H            2.84210219695482       -4.31972232625614       -0.00967482419647
25
 energy: 19.877524784881 xtb: 6.6.1 (8d0f1dd)
C            3.21661073785800        1.17936321826003        0.08491598588663
N            2.22752905421638        0.13206015089243        0.03892906539649
C            2.42038994207306       -1.20223381163585        0.03151733563029
N            1.29960283370418       -1.89854921728391        0.00237077679334
C            0.32463723521191       -0.97011065242594       -0.00724250567619
C            0.86488695212865        0.30902543220846        0.01504809728465
C            0.04507780828579        1.48283710899040       -0.00437371900763
O            0.43112320169018        2.63797486408974       -0.00123329058908
N           -1.30906419098120        1.14548856165842       -0.03192428621977
C           -2.27286901745201        2.23699142406706       -0.05095921816984
C           -1.87537840197796       -0.12568926850258       -0.04921606571277
O           -3.07750345506997       -0.26812304945697       -0.07446837332939
N           -1.01260788189799       -1.19876855243824       -0.03751645653173
C           -1.52542540941828       -2.55279995434816       -0.05903351654350
H            3.70459923693092        1.20343689020700        1.06176961204153
H            3.97439214910719        1.01455452537985       -0.68173459470980
H            2.72731933997618        2.13873043712662       -0.08492591801584
H            3.39777365882363       -1.64163676086698        0.04617268962674
H           -1.71707793001958        3.17136389373225       -0.02647148876607
H           -2.88357313989210        2.18502065207951       -0.95250967408630
H           -2.93596588171031        2.16881114319839        0.81158507803335
H           -1.18550333139763       -3.09165101882286        0.82502730597019
H           -1.16415052426740       -3.07210264373670       -0.94640276505320
H           -2.61180258630597       -2.49063482187452       -0.07177470833789
H            2.84396127417401       -4.48018721839083       -0.01059135826756
25
 energy: 19.870351515155 xtb: 6.6.1 (8d0f1dd)
C            3.21975929388867        1.18851930752354        0.08506849410240
N            2.23060436318618        0.14499974779246        0.03876631975371
C            2.43135095765060       -1.18711385794377        0.03197596922334
N            1.31591342471161       -1.88648734455027        0.00326119170471
C            0.33348294869606       -0.96111762401964       -0.00685320065644
C            0.86767880150136        0.32045882827623        0.01591048931014
C            0.04499486249813        1.49255320730724       -0.00411916387798
O            0.42731523759308        2.64888864591707       -0.00188787382039
N           -1.30724835009856        1.15029705839517       -0.03172823397869
C           -2.27338328218760        2.23755776994809       -0.05086428877495
C           -1.87091364949206       -0.12233030511477       -0.04913306800008
O           -3.07238789183155       -0.27118702873119       -0.07457496232843
N           -1.00452261230164       -1.19425507298286       -0.03714887525954
C           -1.51696619104105       -2.54893161288522       -0.05893420245676
H            3.70667367757833        1.20864590838774        1.06225951196508
H            3.97622076531295        1.02103602666477       -0.68213012803160
H            2.73019988510503        2.14701393560234       -0.08439724524029
H            3.40869690162121       -1.62686701655083        0.04631730385778
H           -1.72245712919246        3.17446633247856       -0.02608399438339
H           -2.88074182633617        2.17937587261864       -0.95318891558444
H           -2.93329741051847        2.16277362058515        0.81236040197473
H           -1.17757815255104       -3.08917216872040        0.82455213968299
H           -1.15599194430328       -3.06971974458840       -0.94563988684055
H           -2.60377599980194       -2.49250517930748       -0.07201281700504
H            2.77756445358435       -4.61941598404849       -0.01390395932754
25
 energy: 19.809831270736 xtb: 6.6.1 (8d0f1dd)
C            3.22203065684420        1.19544395241816        0.08518909361595
N            2.23344994353845        0.15274536397651        0.03879776731354
C            2.44597964370081       -1.17621933168342        0.03252200245100
N            1.33873880027062       -1.88665279074681        0.00407856636064
C            0.34484509356640       -0.97152961730425       -0.00677263913042
C            0.86878670990566        0.31559421835080        0.01527937501262
C            0.04451056809522        1.48737056832396       -0.00443037478588
O            0.42603031528011        2.64351070716772       -0.00157445853722
N           -1.30984683883736        1.14948539727602       -0.03179188325594
C           -2.27622353352656        2.23780282114348       -0.05090144519833
C           -1.86434178776939       -0.12529573033236       -0.04899260172083
O           -3.06506841805434       -0.28161622792213       -0.07436952742590
N           -0.99444072168869       -1.19883680409128       -0.03691015287337
C           -1.51289134571901       -2.54973387481749       -0.05880691565434
H            3.70865167848022        1.21193050992418        1.06252177648675
H            3.97817821107251        1.02528039354859       -0.68174649845373
H            2.73353469145306        2.15405817262447       -0.08426011972109
H            3.42453104346227       -1.61350438560947        0.04698018595012
H           -1.72488222652033        3.17525731886632       -0.02641333072743
H           -2.88439002080923        2.17943947985902       -0.95337428868509
H           -2.93665316117010        2.16274484565275        0.81265069478942
H           -1.17463478351638       -3.09008063170687        0.82494046958834
H           -1.15280977366201       -3.07058050810392       -0.94575556598313
H           -2.59958310382852       -2.48940207501693       -0.07204862308760
H            2.63871266440487       -4.64818298305300       -0.01777759413347
