25
 energy: -42.103025645867 gnorm: 0.002477759484 xtb: 6.6.1 (8d0f1dd)
C            3.25315562790894        1.24022002861429        0.01824118258221
N            2.31881558381598        0.14827971662404       -0.04636853749279
C            2.61041837794604       -1.14640626136513       -0.09872658022388
N            1.47558883215977       -1.87550315675544       -0.13640278533247
C            0.41441815724941       -1.00432981386414       -0.10280808956821
C            0.95068785722791        0.27672654363503       -0.04642193737041
C            0.12216908790502        1.46236446322049       -0.02365454379240
O            0.51856559408536        2.60539948056036       -0.01210414507601
N           -1.23692384123827        1.12697772108598       -0.02204004536180
C           -2.19292777744550        2.23010905187394        0.02298258753332
C           -1.81075584725800       -0.11367836274493       -0.05592384145853
O           -2.99161525550629       -0.30535504948491       -0.03983257734155
N           -0.91432048586132       -1.26518251904833       -0.12123849204097
C           -1.47233733822632       -2.48250552007174       -0.19835251048641
H            3.74029090796615        1.26242677444260        0.99457686890125
H            4.01564198427895        1.13271942183558       -0.75215529516115
H            2.71144232424139        2.17490734995391       -0.12509132316234
H            3.59996209199427       -1.56097752333078       -0.11140225044473
H           -1.63217044847312        3.16135597231707        0.02880790709446
H           -2.84695741902100        2.18774543948363       -0.84677958087096
H           -2.80429319907361        2.15148347865508        0.92104529253064
H           -2.69210063484805       -4.80820497802801        1.41311227876937
H           -0.86820645401910       -3.36388353093809       -0.24518067782085
H           -2.54309955609455       -2.53266281723502       -0.21235509191069
H            1.43498334438575       -2.88378736783565       -0.17075619459518
