72
 energy: -99.706711393125 xtb: 6.6.1 (8d0f1dd)
N           -1.58307139299050        2.91585630334376        2.23228740167329
C           -1.62513230120216        2.10157826936577        1.27076333136034
C           -2.79722643667683        1.97148591557422        0.33504791018999
C           -3.32743225145824        0.54601966032226        0.40469728904227
C           -4.26456783274499        0.09817777314264       -0.52916663622624
C           -4.80370584885460       -1.17224599780081       -0.45893839669921
O           -5.73428965173924       -1.68176500887100       -1.31686884073934
C           -6.26805320635006       -0.84785660583080       -2.31230849870601
C           -4.39605657225248       -2.04944877338016        0.57025494307157
O           -4.98381358473080       -3.28041741786049        0.55865266469232
C           -4.68238425866678       -4.17696482085683        1.59623159924646
C           -3.46668064347440       -1.60740145794309        1.49214996009011
C           -2.94497452402781       -0.32202787021565        1.41112186669937
C           -2.26522729914640        2.27716785691650       -1.09041120822707
C           -1.32548251714364        1.21002714187282       -1.66627961835758
C            0.00348744479269        1.26601771170703       -1.02352840118649
N            0.78525921845494        0.15881157767027       -0.77815457679367
C            2.14300876377255        0.33717524473122       -0.38948253501795
C            3.14796118929505        0.16909394056226       -1.54205891588465
C            4.50982411791125       -0.01072538506063       -0.95632791051862
C            5.52773609971942        0.86790360019668       -1.28159798235164
C            6.80983854564608        0.71668992115709       -0.77442364247511
C            7.08298122084851       -0.36898725319510        0.03506281013767
O            8.32264814493378       -0.63897099127389        0.55971714390274
C            9.39925955595547        0.23964615000587        0.30223020650318
C            6.02661323817492       -1.26826422177947        0.37814667574816
O            6.42256535393088       -2.30537688108121        1.16943741994332
C            5.48792155923150       -3.33546779604572        1.34367048086410
C            4.71435262237082       -1.07153153526821       -0.05839323910199
C            0.35036796856978       -1.18048344332405       -1.05040424466955
C           -3.97348337438299        2.93368469569124        0.66456578051590
C           -4.56677251307292        2.64031582244468        2.04137906667766
C           -3.58913064041898        4.40996168326213        0.57874468436511
H           -4.58190554638598        0.76214670777416       -1.31656627169514
H           -6.74478005239803        0.04102078341793       -1.88526407408355
H           -7.02136863911415       -1.44901720813261       -2.81991127427554
H           -5.50690592846465       -0.53897672170331       -3.03741032031946
H           -4.95197633618820       -3.76897581240177        2.57643760068961
H           -5.28421641977928       -5.06278375434365        1.39809044197061
H           -3.62257230850903       -4.45497399169739        1.59936171678763
H           -3.14397853474619       -2.24988261137992        2.29656778601305
H           -2.24561056242621       -0.00176540515289        2.16767285342651
H           -3.11367076110399        2.39714006281234       -1.76523151790341
H           -1.72623080539907        3.22548141455631       -1.06236860745413
H           -1.77526677363518        0.22340525413865       -1.55201326952537
H           -1.23290991684176        1.40156704858000       -2.74849066206334
H           -0.78803279982227        1.45215283774953        0.97633848932101
H            0.50430497280332        2.21388672972678       -0.93722058831296
H            2.37028820463588       -0.41349111341253        0.37272554934371
H            2.27853742092976        1.32284670456218        0.06183300169851
H            3.11417667418427        1.03194049532339       -2.20939890744327
H            2.88606954470726       -0.71873638421836       -2.12275532498208
H            5.32855627579722        1.70598039480808       -1.93486001702703
H            7.57840306855646        1.43442814929339       -1.02936562669954
H            9.21360082915783        1.25476160350572        0.67256755851584
H            9.65453411826308        0.29198729865135       -0.76292122255009
H           10.25619975123466       -0.17089856383692        0.83959520392688
H            5.83414514767320       -3.93311090957218        2.18167891573202
H            4.50012044458241       -2.93349310271995        1.57689502510397
H            5.41770219230063       -3.94966540911158        0.43852770032479
H            3.81278408019482       -1.65751456804290        0.30390830713649
H            0.34835550302972       -1.42054602796592       -2.12159153834830
H           -0.65630434789541       -1.33598009155571       -0.65944666023888
H            1.02305945017705       -1.87495204779907       -0.54649627918346
H           -4.75235102545140        2.74277807141742       -0.08438961840203
H           -3.82901051244415        2.84740621589550        2.80947437682521
H           -4.87633339273042        1.60058616288485        2.11913579751051
H           -5.43626758463770        3.27207639042165        2.20948530778061
H           -2.76788045529661        4.61814819984601        1.25668550919449
H           -3.30313470471071        4.69403600913034       -0.43069876660391
H           -4.44184875226891        5.02009924701810        0.86886313224016
H           -0.71945764604660        2.90814726675204        2.77164784394972
