72
 energy: 15.262606677544 xtb: 6.6.1 (8d0f1dd)
N           -1.69718955915323        2.93556136083861        2.39463095457080
C           -1.66346249367955        2.22223539569678        1.36488115556000
C           -2.77785596540356        2.10415692629770        0.36374203810105
C           -3.32989270406738        0.68678162342896        0.40561426805648
C           -4.23423103269343        0.26315405577068       -0.56853442107932
C           -4.76581269462866       -1.01260700632539       -0.55356638975995
O           -5.65882877092411       -1.50249552641212       -1.45884636214979
C           -6.17407867106439       -0.63359913055501       -2.43398246876458
C           -4.38371406300482       -1.91873720960011        0.46060988753585
O           -4.95034058975987       -3.15511383908998        0.38480426738462
C           -4.67791330703168       -4.08178217709523        1.40469297049818
C           -3.49221910853226       -1.49620278953939        1.42803440049765
C           -2.97425641374204       -0.20608208952398        1.39992991023375
C           -2.12241550862160        2.37032065702116       -1.01421167575396
C           -1.18706754885753        1.24981269173231       -1.50625725669250
C            0.07359227750396        1.12736406356526       -0.70818011981327
N            0.67872344133210       -0.07028714554328       -0.38791439765130
C            2.04347990923972       -0.22741046940598       -0.12432581280941
C            3.08792271373087       -0.82479974488694       -1.67117899917740
C            4.46848170483413       -0.63913021174121       -1.21449066797919
C            5.18554260894407        0.53099181007716       -1.44979506360884
C            6.43638100706644        0.73035849839811       -0.88498061841697
C            6.99290709543405       -0.22858627702644       -0.05827638102073
O            8.18763387285667       -0.11528203564025        0.58994227703573
C            8.95751339425779        1.03683664876472        0.38474048925926
C            6.29173646268525       -1.43200169690930        0.17240332279887
O            6.91736090992280       -2.31801915294648        1.00120898814129
C            6.30940429961881       -3.56250171884309        1.22740903255796
C            5.05451598874861       -1.62050284088568       -0.40457290825665
C           -0.07234219854688       -1.29123307668291       -0.53905921436450
C           -3.94559961750109        3.09890196640423        0.60349485660282
C           -4.65796212086496        2.80683671240887        1.92283465427766
C           -3.50583149041288        4.56086532324933        0.57142630559799
H           -4.52893179278086        0.94952191811187       -1.34534439249481
H           -6.66939323914684        0.23304744896837       -1.98362246247759
H           -6.90541252931587       -1.22017808080761       -2.98780518095078
H           -5.39578170671839       -0.28801540280729       -3.12193519334050
H           -4.99013407965035       -3.70774654098400        2.38597334980055
H           -5.26036348324071       -4.96757114968984        1.15505928012978
H           -3.61537731646053       -4.34696971286070        1.43933043250659
H           -3.19522100091002       -2.15919760502702        2.22548134585072
H           -2.30213683593913        0.09786843998839        2.18788403991377
H           -2.91329476675834        2.51669096542464       -1.75280035939329
H           -1.55466177098005        3.29975916771419       -0.95915086161563
H           -1.74376290709703        0.31222587488373       -1.52526264669131
H           -0.93335893336045        1.50000781259479       -2.54670482754304
H           -0.78009972153837        1.65006310309551        1.03629189260762
H            0.70949506602450        1.99931623890740       -0.65790196071815
H            2.23095591212961       -0.99013904486077        0.61484771931135
H            2.46043100428095        0.69559920682336        0.27869879396070
H            2.87577219931668       -0.25937498942928       -2.57600637305884
H            2.81404844612024       -1.85828041287512       -1.83286530583586
H            4.77997463785988        1.29714999010301       -2.09482669860962
H            6.96781464886717        1.64841517563630       -1.08608668084398
H            8.43970298033717        1.93558093154729        0.73386728427656
H            9.23670336376340        1.16992920758960       -0.66192468757658
H            9.85990777727805        0.89403787740495        0.97579958855278
H            6.99597205834530       -4.10808528313504        1.87357657532557
H            5.34138518211547       -3.45579171354826        1.73316266369861
H            6.17613003761327       -4.12408430438617        0.29835193853341
H            4.50889345271362       -2.53678280722785       -0.23977331755363
H           -0.21604329930529       -1.52638666224405       -1.59475519272756
H           -1.04946685309952       -1.21355878982095       -0.05603645404250
H            0.49330423834225       -2.09592465521830       -0.07492753780481
H           -4.66649599307371        2.94888495330439       -0.20782729830386
H           -3.98316083734863        2.97979490262021        2.75233629965788
H           -5.00398493564064        1.77651656436505        1.95780464172619
H           -5.51719678427580        3.46497436599918        2.03300295281869
H           -2.76399389308701        4.74310875294023        1.34128177659732
H           -3.09804030789157        4.83798028072812       -0.39667820233028
H           -4.36346001865885        5.20078957588339        0.76718880539808
H           -0.86174624730871        2.93859058750577        2.97393324200469
