72
 energy: 34.115112025673 xtb: 6.6.1 (8d0f1dd)
N           -1.79650389359819        3.00264154703433        2.46596353453829
C           -1.71760875731468        2.25813621321328        1.46207546680956
C           -2.79101918814590        2.12395310526105        0.41723473302581
C           -3.33491482468861        0.70362372415676        0.44168186391346
C           -4.20044506980315        0.27085836454870       -0.56393283145374
C           -4.72743626200310       -1.00713676930686       -0.56219625662345
O           -5.58540243403978       -1.50520980870872       -1.49605996902703
C           -6.07371378404056       -0.64378670596859       -2.49182677907853
C           -4.37713768237145       -1.90737402243597        0.46919524870853
O           -4.93188484369305       -3.14724266491434        0.37674303354471
C           -4.68473669587257       -4.07309004068382        1.40385284065810
C           -3.52528663972301       -1.47568339063294        1.46786433878138
C           -3.01436897014078       -0.18256870034317        1.45359052040733
C           -2.08980324903005        2.39939490775739       -0.93703261257221
C           -1.16116660600864        1.27398885362400       -1.43378415692171
C            0.09774916247051        1.11488199365774       -0.63032670889287
N            0.67298741196321       -0.05062790192572       -0.30094861537417
C            1.91585796194840       -0.19289786566593        0.16643638874361
C            3.29723995662207       -1.00410517479817       -2.00770943522239
C            4.52610834691152       -0.74141317307111       -1.40033586543803
C            5.25166727407207        0.44730112321025       -1.62646168956559
C            6.45941898594908        0.68431684205053       -1.00521085497175
C            6.98661783869742       -0.23346416421541       -0.10903651127952
O            8.13671147175469       -0.07303991847717        0.60449243995526
C            8.90271570446361        1.08225054633119        0.40636938790147
C            6.29143830739142       -1.44455416004868        0.12498431754697
O            6.88969415194642       -2.28369400971371        1.02121407409458
C            6.30177091457212       -3.53568925155057        1.25590424536804
C            5.09857604728601       -1.68126097474263       -0.50749827586144
C           -0.08141092862775       -1.27588699761703       -0.50239974547479
C           -3.97731115571217        3.10769448406338        0.61260330690022
C           -4.72815108547424        2.81967830613944        1.91173239250783
C           -3.55423418868062        4.57469076366355        0.58042848992771
H           -4.46864526850129        0.95206421562863       -1.35465765174520
H           -6.58888516161243        0.22174357092147       -2.06238919676630
H           -6.78316063997016       -1.23629781876782       -3.06741158470413
H           -5.27544363239181       -0.29687613976227       -3.15561764473183
H           -5.03731709336289       -3.70623514079277        2.37382304506211
H           -5.24595163461134       -4.96556185949721        1.13111204802732
H           -3.62107795830838       -4.32472964618812        1.47660354683632
H           -3.25468086722111       -2.13290085204626        2.27924547975992
H           -2.37547536787855        0.12865704651903        2.26579141418690
H           -2.85970394233287        2.57376485422814       -1.69216322873934
H           -1.51083032529638        3.31935871666420       -0.85049433241072
H           -1.72790629225237        0.34398570705851       -1.47719696950896
H           -0.89668160755938        1.54046672360423       -2.46735877014671
H           -0.83127681266937        1.66157989258123        1.21740042544424
H            0.71479520792095        1.99805286380468       -0.52499524182446
H            2.21870248326860       -1.10909971092754        0.61990453919204
H            2.45032406394072        0.67781686552285        0.47953926234993
H            2.96821570410523       -0.38832414312039       -2.81750484128893
H            2.88428148388095       -1.99047667046973       -1.98855817867696
H            4.86839496107231        1.17341292708472       -2.32697246091352
H            6.98985264641361        1.60183637605427       -1.21164110132493
H            8.35062274157882        1.98519629388845        0.68498334261150
H            9.25033314639443        1.18005102603380       -0.62223566899105
H            9.76657766731047        0.97824116717520        1.05909476966922
H            6.96074108862823       -4.04018567589620        1.96111896813714
H            5.30120620563098       -3.43760119288004        1.69538330052616
H            6.24106945873914       -4.13290971262423        0.34236670803267
H            4.55936814476629       -2.60045802512510       -0.34505811080231
H           -0.20272868273917       -1.47243732196873       -1.56686869805057
H           -1.06705381113355       -1.20191188030045       -0.03710329183519
H            0.46425520719042       -2.10475202644754       -0.05722958291517
H           -4.67184583260795        2.94209686853635       -0.21931120721539
H           -4.08414593368157        3.01304703801742        2.76102962637270
H           -5.05986738221304        1.78476398408677        1.94818494804026
H           -5.60064619203351        3.46532914815097        1.98591411309039
H           -2.83678115643802        4.77118363023844        1.36941011558872
H           -3.12204443463039        4.84827943021101       -0.37790582282708
H           -4.42455722361693        5.20581985958463        0.74641039126075
H           -0.98636347569865        3.01627172639272        3.08024599996755
