72
 energy: 34.663762830845 xtb: 6.6.1 (8d0f1dd)
N           -1.82161632380425        3.01987722718808        2.48299855340696
C           -1.73157861146027        2.26678259444945        1.48624070220378
C           -2.79437481575743        2.12895750335352        0.43061843962460
C           -3.33636052125268        0.70792039480627        0.45066522025234
C           -4.19213705277201        0.27287945701554       -0.56254866691960
C           -4.71775933318033       -1.00569790003805       -0.56421196671221
O           -5.56697802249216       -1.50583116363217       -1.50516404155433
C           -6.04834166690074       -0.64644893696650       -2.50608373719699
C           -4.37542811381956       -1.90441200376869        0.47119986875203
O           -4.92722755578905       -3.14539688728553        0.37470022274371
C           -4.68632429020106       -4.07095913805677        1.40344807122501
C           -3.53390796123874       -1.47043764851691        1.47759080835185
C           -3.02489696917808       -0.17658111039843        1.46685433576314
C           -2.08202866360321        2.40681873289592       -0.91776795349541
C           -1.15442969079859        1.28079585430735       -1.41613544169519
C            0.10295694138023        1.11545652539210       -0.61145564932711
N            0.67157678243933       -0.04864028628846       -0.27794299460478
C            1.89783729038637       -0.18986374116511        0.22145251063784
C            3.33340263659121       -1.03974827545235       -2.07066189319502
C            4.54261463843769       -0.76541042386461       -1.44219089352544
C            5.26871137550153        0.42470050126069       -1.67022852891474
C            6.46659031607801        0.67161865316757       -1.03576932487045
C            6.98525023880122       -0.23477794181644       -0.12217671623204
O            8.12268005348835       -0.06265861625003        0.60724752035957
C            8.88874704661676        1.09337091401724        0.41135288865072
C            6.29219927089606       -1.44809019258107        0.11256115009585
O            6.88219985150847       -2.27474282935871        1.02515541590959
C            6.29978870721341       -3.52896849354176        1.26262911950129
C            5.10984143350115       -1.69613600348657       -0.53367029187497
C           -0.08344865164289       -1.27213362359782       -0.49334232362578
C           -3.98532076389707        3.10981287303934        0.61514576204391
C           -4.74587316897572        2.82289119914065        1.90900111787465
C           -3.56667721359023        4.57819258044443        0.58295289754131
H           -4.45381453822774        0.95276035432499       -1.35661452389110
H           -6.56863656353885        0.21875616454061       -2.08221528547013
H           -6.75210479377355       -1.24064636427774       -3.08696236337294
H           -5.24520778124831       -0.29913165476818       -3.16379082907859
H           -5.04898098768436       -3.70607699663560        2.37040239547553
H           -5.24210236350582       -4.96505867229959        1.12499013773187
H           -3.62260016530900       -4.31921177301966        1.48581215439657
H           -3.26979555672522       -2.12631544506671        2.29219166481429
H           -2.39438626945585        0.13631342814012        2.28487751440221
H           -2.84632156382658        2.58808374468300       -1.67707486038250
H           -1.50023216663941        3.32420965212824       -0.82307620668464
H           -1.72335769820541        0.35245851068718       -1.46499859013334
H           -0.88809535609306        1.55105099898476       -2.44835007810424
H           -0.84456080024273        1.66455222988521        1.26162000148111
H            0.71661481527400        1.99871053243919       -0.49306545307662
H            2.20362153708431       -1.12200052215501        0.64321204948918
H            2.43973726625169        0.67938832917094        0.52545499639118
H            2.99332383028813       -0.41945780735192       -2.87167120685668
H            2.90375617390142       -2.01863182022300       -2.02691349350757
H            4.89117356251657        1.14115887172137       -2.38340712154400
H            6.99587294449471        1.58941003870967       -1.24350202374124
H            8.32890083258806        1.99706400164473        0.67133585630835
H            9.25401424741338        1.18162691023546       -0.61169493061833
H            9.74167928914127        0.99868579163376        1.07963236866243
H            6.95152402568851       -4.02222231198791        1.98231061257538
H            5.29172287712974       -3.43413928092690        1.68501465400361
H            6.25790244572729       -4.13466200575979        0.35381173114735
H            4.57206617054568       -2.61590907217144       -0.37089135175657
H           -0.19938348458635       -1.46027072248528       -1.56000696644401
H           -1.07139427502118       -1.19925661865976       -0.03233253887019
H            0.45696529516881       -2.10659379898395       -0.05192773932593
H           -4.67311085764693        2.94006079894933       -0.22181839629167
H           -4.10978054405560        3.02129724267866        2.76321574777821
H           -5.07415871992194        1.78690486585681        1.94596678279561
H           -5.62149451130359        3.46533667443373        1.97385513416810
H           -2.85531450767953        4.77840060032649        1.37652141247517
H           -3.12838838616271        4.85105406227565       -0.37282429613123
H           -4.44021101887651        5.20685259840473        0.74142239596995
H           -1.01815282894437        3.03596446586564        3.10620075625167
