72
 energy: 22.704649193494 xtb: 6.6.1 (8d0f1dd)
N           -1.72174208850212        2.95191822068021        2.41287473812745
C           -1.67704745251962        2.23165553464150        1.38915559826040
C           -2.78135634419197        2.10908890430690        0.37708994485483
C           -3.33120586490647        0.69088428319157        0.41465418832141
C           -4.22576281093953        0.26493014604508       -0.56762276342536
C           -4.75621895150784       -1.01141857393307       -0.55594243546189
O           -5.64036364759418       -1.50331220634057       -1.46841127942669
C           -6.14893691326528       -0.63606978769405       -2.44868264150653
C           -4.38203161036762       -1.91611037863787        0.46276965916939
O           -4.94561882455848       -3.15313634980637        0.38272677910669
C           -4.67965950533418       -4.07968344796805        1.40459159642844
C           -3.50025458567352       -1.49117636256884        1.43808474248124
C           -2.98408650680748       -0.20024447951594        1.41344719436614
C           -2.11427906980359        2.37770196155921       -0.99488493683761
C           -1.18036931673762        1.25594407143266       -1.48724828209065
C            0.08026265468852        1.12325040333442       -0.68822633596727
N            0.67707964417827       -0.06583329140747       -0.36688915370221
C            2.01681249500885       -0.22290406762694       -0.06845764806606
C            3.13293241742345       -0.86454945396183       -1.74539892139250
C            4.48304993583592       -0.66418472996511       -1.26104688240535
C            5.20133480195055        0.50964103768288       -1.49447910584129
C            6.44217204097094        0.71893208031882       -0.91511949838938
C            6.99122717089800       -0.22986489223982       -0.07121352842214
O            8.17591202631747       -0.10461346865207        0.59422932284604
C            8.94402745946499        1.04822026911639        0.39033429865030
C            6.29228075188294       -1.43458186214764        0.16020208371658
O            6.91100404606785       -2.30976045161314        1.00672532588006
C            6.30729503436993       -3.55560401602399        1.23466392936476
C            5.06563104915821       -1.63518871014842       -0.43139674407821
C           -0.07551015087078       -1.28780727740912       -0.52909001609469
C           -3.95372292021084        3.10124506748527        0.60560364925445
C           -4.67552749072459        2.81004702169637        1.92006480868421
C           -3.51769623755545        4.56430404614785        0.57344732838531
H           -4.51380869292679        0.94997611233052       -1.34804840587383
H           -6.64904184744960        0.23031971723161       -2.00325488646655
H           -6.87497266212129       -1.22389796940409       -3.00808309639378
H           -5.36551754558575       -0.29019903210444       -3.13056669951839
H           -5.00201916630040       -3.70723821685296        2.38311911240279
H           -5.25694541331604       -4.96713632025761        1.14916029702674
H           -3.61673273642477       -4.34153948788681        1.44875817575581
H           -3.20970570035314       -2.15269982586121        2.23906084468317
H           -2.32006462545714        0.10555957974762        2.20751291987757
H           -2.90003692182655        2.53047595614047       -1.73773984118601
H           -1.54410687207868        3.30509037880720       -0.93218265234779
H           -1.73942393084609        0.32018207418698       -1.51312853078582
H           -0.92291652000298        1.51032262199665       -2.52572134214167
H           -0.79265411650992        1.65286420688357        1.08178760754264
H            0.71165780233377        1.99851519626894       -0.62351373725857
H            2.23152546966598       -1.02416836064511        0.61208748643430
H            2.46514697170002        0.68213699438102        0.32332208516891
H            2.89710800691570       -0.29230824712403       -2.63415530593377
H            2.83155522547795       -1.89181130947175       -1.87103610829080
H            4.80133826002105        1.26657295980116       -2.15361207869026
H            6.97329643606424        1.63692009122480       -1.11793005794050
H            8.41712680895627        1.94835894304902        0.72207358473145
H            9.24038606758132        1.17255227962735       -0.65234898061350
H            9.83733069066722        0.91544925856175        0.99711538804150
H            6.98673121756144       -4.09157816329556        1.89624433585270
H            5.33059381979165       -3.45015414170659        1.72386324065181
H            6.19184107158839       -4.12657995927602        0.30916994284841
H            4.52196796638669       -2.55260632953159       -0.26728873651662
H           -0.21249665148078       -1.51396844826629       -1.58699719762524
H           -1.05494513312440       -1.21017685474630       -0.05132960887861
H            0.48518796472185       -2.09811408942333       -0.06911760470730
H           -4.66817741119320        2.94748411476610       -0.21083786070952
H           -4.00819405282942        2.98806039548412        2.75447976341419
H           -5.01793990607254        1.77854748107153        1.95523976133445
H           -5.53815615967020        3.46514042365126        2.02157717643931
H           -2.78186099008896        4.74995175760727        1.34813787486118
H           -3.10382977307553        4.84039711660924       -0.39230654674892
H           -4.37832749049322        5.20235994972408        0.76185348920288
H           -0.89273461749716        2.95813150470592        3.00107721028918
