72
 energy: -4.421963774859 xtb: 6.6.1 (8d0f1dd)
N           -1.57987939629744        2.84727001203448        2.30514860116364
C           -1.59807233557646        2.17856453379645        1.24322228683129
C           -2.75984106799988        2.07914688415589        0.29679323892810
C           -3.32170787015822        0.66558630975214        0.35987692082907
C           -4.27373009792706        0.25356681546112       -0.57302505183849
C           -4.81235692851556       -1.01839409064448       -0.54091401608150
O           -5.74888293817295       -1.49655272866553       -1.40761090392322
C           -6.29766000247805       -0.62002704547606       -2.35691673218099
C           -4.39181182750477       -1.93230022485318        0.45017875452243
O           -4.97365090224772       -3.16350020509659        0.39758540009193
C           -4.66979576407733       -4.09222511085289        1.40630099560444
C           -3.45299940838394       -1.52185290036322        1.37657204059415
C           -2.92552924010080       -0.23611143923707        1.33061079798072
C           -2.16360204874024        2.33228498514498       -1.11004016013083
C           -1.22656725475429        1.21460097161977       -1.59887830685993
C            0.03904236800565        1.13078377578230       -0.81253350934737
N            0.66346381416209       -0.06564428588504       -0.49437220000321
C            2.07278534683939       -0.16043578730493       -0.21260915913778
C            2.97997097068077       -0.66320120043635       -1.43566062760111
C            4.40715933336849       -0.52298297317140       -1.00473396058284
C            5.12198370564482        0.64245146693247       -1.22480172305855
C            6.40883373647979        0.79314297873684       -0.72876304549991
C            6.99688118690752       -0.21816296662972        0.00770734163470
O            8.24048448703299       -0.16865032891156        0.56182257674518
C            9.02128104290370        0.97695290799063        0.35078090470165
C            6.28167421403953       -1.41490193837845        0.23315902403525
O            6.94082009445318       -2.35565347972256        0.96665377288475
C            6.31358315101209       -3.59191117478809        1.18669102441041
C            5.00401727992790       -1.54930777080394       -0.27144867396635
C           -0.05909332209095       -1.30163285011885       -0.58664823926902
C           -3.90292370345652        3.08684712797183        0.59169424702557
C           -4.56727676562245        2.78934723546911        1.93417587512276
C           -3.44295963337183        4.54287024236969        0.55871076069765
H           -4.60134682353517        0.94655033362980       -1.33033485958901
H           -6.76885318608331        0.24765613157952       -1.88300378428947
H           -7.05533382876885       -1.20032556042785       -2.88094303075858
H           -5.54644971686298       -0.27682781090048       -3.07601992491650
H           -4.93050962797704       -3.71131800300926        2.39967912161895
H           -5.27776181744875       -4.96850380967987        1.18622511189840
H           -3.61153134574286       -4.37533052275448        1.39281338379516
H           -3.12523884785519       -2.19177482066734        2.15583467325778
H           -2.21433120887175        0.05749569427665        2.08722320191844
H           -2.97850631682073        2.44485843070436       -1.82732725672485
H           -1.60863292307673        3.27105719080923       -1.09488251365154
H           -1.77367166505133        0.27084768548204       -1.58367109015409
H           -0.98249876668186        1.44212419966142       -2.64561929042708
H           -0.72313051433807        1.64733065838173        0.81268471484929
H            0.68222519249986        1.99721648243684       -0.81810752860941
H            2.18512538458367       -0.81382770916243        0.66415926867169
H            2.37639544987094        0.83283466168165        0.16575869164340
H            2.81127687590045       -0.07750363731835       -2.34247556964073
H            2.74033591080374       -1.69899315050013       -1.66125045669268
H            4.68920901035157        1.44711006004222       -1.79970160838835
H            6.94335139689595        1.71011561595170       -0.92143453546444
H            8.55670070105233        1.86835280317504        0.78321024972288
H            9.21762068994439        1.15334910631150       -0.71010321785695
H            9.96257277043555        0.78184478754335        0.85999247456104
H            7.03108080153448       -4.18237728149761        1.75360867007929
H            5.39305449843889       -3.48364147200569        1.77182320982610
H            6.09002324906024       -4.10658206381459        0.24725100203545
H            4.44819561449815       -2.45994887434511       -0.10907359241736
H           -0.22605754260057       -1.58396302151697       -1.62971593105101
H           -1.02802948460577       -1.23114633250385       -0.08310225661055
H            0.53236949354823       -2.07564910709259       -0.10253628040089
H           -4.65494364859852        2.95462027903552       -0.19394067288743
H           -3.85632869802255        2.93671750340304        2.73869456483750
H           -4.93161465786450        1.76536964437001        1.96859221016647
H           -5.40880219888275        3.46148683195944        2.08565589444507
H           -2.67186958023417        4.70958241026174        1.30351092618494
H           -3.06464039893444        4.82501618229862       -0.42014965528622
H           -4.28482437553752        5.19179936120029        0.78963851116593
H           -0.71223322041926        2.84173394390868        2.83603753457763
