72
 energy: -0.767858874069 xtb: 6.6.1 (8d0f1dd)
N           -1.62655541860023        2.88417436640768        2.34074600090487
C           -1.62375343949225        2.19486781977261        1.29244640672661
C           -2.76680290036107        2.08902671533629        0.32368450480335
C           -3.32505120528146        0.67411627809013        0.37815666509987
C           -4.25813050450306        0.25743146345223       -0.57138397197780
C           -4.79375971817178       -1.01615452649657       -0.54622933382855
O           -5.71300121253819       -1.49930930507033       -1.42885823454732
C           -6.24823403993026       -0.62563765125016       -2.38840855912447
C           -4.38860682558969       -1.92691845458025        0.45408537773183
O           -4.96443782785824       -3.16052921210100        0.39175217637323
C           -4.67318418318665       -4.08810787221624        1.40526841395995
C           -3.46866856707431       -1.51159864570866        1.39728353103186
C           -2.94509999577004       -0.22407855787866        1.35859209758291
C           -2.14639317155337        2.34742617270090       -1.07159823243202
C           -1.20919185645660        1.22905147012269       -1.56174825342110
C            0.05466206181451        1.13036645224756       -0.76957408478560
N            0.67375456404413       -0.07227798569476       -0.45284503258909
C            2.08199313037359       -0.20894722946315       -0.20813121597607
C            3.00465821972054       -0.72395544451808       -1.51081151193379
C            4.42975007318919       -0.56837632648774       -1.08670330318986
C            5.14591526075475        0.59702371885774       -1.31614384309926
C            6.42017145345345        0.76708363302516       -0.79274145518176
C            6.99646837356278       -0.22297017864657       -0.01873940074549
O            8.22063303532057       -0.14723957966058        0.57509903018907
C            8.99673029141015        1.00119064205820        0.36509710772129
C            6.28687311923937       -1.42238485453395        0.20883403176066
O            6.93278482267950       -2.34116390338511        0.98223954745302
C            6.31253536756310       -3.58088536705877        1.20327682919862
C            5.02372719497911       -1.57738979920306       -0.32515126517864
C           -0.06452629697919       -1.29853295446659       -0.56694544841745
C           -3.92014711925636        3.09148483252546        0.59627991501776
C           -4.60418596491995        2.79654616563371        1.92954859999019
C           -3.46847524235493        4.54994087026259        0.56380837138957
H           -4.57245993856654        0.94777387480990       -1.33677264745436
H           -6.72910242463194        0.24167405851397       -1.92370879744644
H           -6.99539685064420       -1.20842138635136       -2.92469242262861
H           -5.48587116282978       -0.28131355980314       -3.09486692098957
H           -4.95472060855015       -3.70971268568964        2.39405864051233
H           -5.27101523419545       -4.96839039563093        1.17329771869747
H           -3.61283641985241       -4.36391603001227        1.41127271523804
H           -3.15308809827283       -2.17885261887517        2.18390907695450
H           -2.24936646596553        0.07385729949151        2.12791517177786
H           -2.95190309077878        2.47414404763803       -1.79763216995079
H           -1.58606002337518        3.28251478028650       -1.04007162589326
H           -1.76012725420494        0.28745246573491       -1.56040505287062
H           -0.96297939885968        1.46602032332667       -2.60656780834065
H           -0.74479746148827        1.64595956370363        0.90246722111523
H            0.69656838498706        1.99825712658095       -0.75522658946797
H            2.21181091251047       -0.88655725857793        0.63909106806402
H            2.41629858792012        0.76525700018932        0.19389825776252
H            2.82801011998744       -0.15218929470285       -2.42640184270108
H            2.76712771912516       -1.76138239963253       -1.72893664765860
H            4.72435958226627        1.38787481578542       -1.91866354941514
H            6.95326167824566        1.68477157128664       -0.98857200308046
H            8.50950278353007        1.89582234615142        0.76435290794604
H            9.22569724220065        1.15985050421837       -0.69126874809613
H            9.92368595129587        0.82742524870629        0.90765684299490
H            7.01827834617932       -4.15415074646405        1.80230586612754
H            5.37217848253919       -3.47271029783989        1.75712457730003
H            6.12560933554837       -4.11402767747809        0.26620511970621
H            4.47172469758174       -2.48984321543679       -0.16007806334613
H           -0.22565545694793       -1.56222153346494       -1.61495825578202
H           -1.03566592546622       -1.22352631757620       -0.06962968987354
H            0.51660582261301       -2.08483548581859       -0.09017011866519
H           -4.65980192028571        2.95226900262494       -0.19978799868591
H           -3.90759721309596        2.95435453440112        2.74417949211476
H           -4.96116753774110        1.76997212203386        1.96422927372445
H           -5.45296660130235        3.46330302775429        2.06444074274849
H           -2.70913444108643        4.72257257068419        1.31894499321797
H           -3.07822998492483        4.82992600257433       -0.41083480236966
H           -4.31682740679876        5.19537485840062        0.78060509010438
H           -0.77210764906703        2.88023537253763        2.89213039415022
