72
 energy: -5.960775274643 xtb: 6.6.1 (8d0f1dd)
N           -1.51280307958670        2.79026650595923        2.25141776342322
C           -1.56109880285632        2.15775930506666        1.16821666047669
C           -2.74976130992988        2.06451463549275        0.25644753914939
C           -3.31655226773490        0.65238386015209        0.33302706403131
C           -4.29606226983053        0.24790479250723       -0.57589919480513
C           -4.83990512147186       -1.02119500556073       -0.53329586010164
O           -5.80198632750368       -1.49128841707719       -1.37538826998711
C           -6.37178169186714       -0.61208273937114       -2.31044345750211
C           -4.39671603750565       -1.93972393746437        0.44446588918933
O           -4.98736119581682       -3.16661721229417        0.40673130628295
C           -4.66484907804324       -4.09796232483415        1.40719509478861
C           -3.43000742845549       -1.53765257035070        1.34543700526557
C           -2.89654610886278       -0.25456472472091        1.28902245784988
C           -2.18807724671828        2.30963872808086       -1.16711535600985
C           -1.25401507079664        1.18911618759851       -1.65115650071648
C            0.01285707173338        1.12994413617354       -0.87500440459701
N            0.64078435523381       -0.05118091383250       -0.54622767333506
C            2.01939478200063       -0.06313121386173       -0.16835892767667
C            2.94594363839593       -0.56871209949149       -1.31575121025793
C            4.37103922118610       -0.45502951468407       -0.87858589219014
C            5.08732758414511        0.70921152725092       -1.08745874133683
C            6.39224301787749        0.83022432628472       -0.63429268389873
C            6.99672353689298       -0.21132429834296        0.04524067741538
O            8.26718103250747       -0.20074175352355        0.53719927613013
C            9.05697317013738        0.94026682116178        0.32749286075777
C            6.27275464743073       -1.40421750970559        0.26830027419446
O            6.95020469149441       -2.37646869940467        0.94034682041913
C            6.31573712245384       -3.60889403436304        1.16149598483177
C            4.97449183197979       -1.50752589868404       -0.18996588172215
C           -0.05334251154396       -1.30304460319980       -0.61283547611795
C           -3.87701042493718        3.07975546842203        0.58584655318588
C           -4.51266356829087        2.77863451346026        1.94161088705229
C           -3.40603020690422        4.53271354140347        0.55139796123273
H           -4.64406106759144        0.94524244631925       -1.32021051961258
H           -6.82971863561336        0.25580595730803       -1.82403009341437
H           -7.14454231865362       -1.18959411311686       -2.81535626999854
H           -5.63830456361091       -0.27088718195094       -3.04910654854345
H           -4.89447755989333       -3.71414600030424        2.40691094055122
H           -5.28785757702039       -4.96763919040139        1.20431638469290
H           -3.61045504950638       -4.39223917960241        1.36438196846690
H           -3.08397189771044       -2.21175587201854        2.11316202872289
H           -2.16287004829875        0.03168479395203        2.02690821291523
H           -3.01505819715076        2.40021337516969       -1.87211927760813
H           -1.64095102184044        3.25380988572779       -1.17579857919611
H           -1.79570504714346        0.24307081141540       -1.61481108374044
H           -1.00485875125657        1.39854136968621       -2.69935717368148
H           -0.69358760935312        1.65041976476663        0.68075117081643
H            0.65618164396881        1.99364370507621       -0.91165545979035
H            2.13441076476378       -0.70117583361610        0.71663453896337
H            2.31264198095914        0.95005917152934        0.13129383584614
H            2.77962474542974        0.03281555182356       -2.21185276747297
H            2.69540365871194       -1.60354874425991       -1.54968188878890
H            4.63839048959963        1.53339835248773       -1.62108576182680
H            6.92920944378357        1.74606355775006       -0.82240963934764
H            8.62782909788793        1.82541382694502        0.80855431497280
H            9.20498814160170        1.14379694056200       -0.73792981290090
H           10.01761785899465        0.71359738388390        0.78600181848550
H            7.05022948060252       -4.22304513016226        1.67961670833199
H            5.42669408150039       -3.50194162294142        1.79281825992945
H            6.03806290936531       -4.09688110383382        0.22142474757369
H            4.41251052357706       -2.41524949369830       -0.03156232170996
H           -0.22325296379680       -1.61239571874014       -1.64914486271215
H           -1.02001146932536       -1.23984277665184       -0.10369990134910
H            0.55286353605688       -2.05827016601411       -0.11831922323277
H           -4.64655486870109        2.95619306085305       -0.18464638878802
H           -3.78223905778235        2.91092038788229        2.73251724295581
H           -4.88854454813606        1.75888974178448        1.97643878792790
H           -5.34325821652569        3.45847875882777        2.11566390757312
H           -2.61786497389035        4.69309867508169        1.28049523723356
H           -3.04623193461050        4.81907943440927       -0.43363799195663
H           -4.23916212876893        5.18489334675691        0.80308601509294
H           -0.62455912895926        2.78666459656842        2.74898512258109
