72
 energy: 35.545596365754 xtb: 6.6.1 (8d0f1dd)
N           -1.92065728945913        3.08871384358517        2.54866785008262
C           -1.78865313476308        2.30116554837499        1.58253559943895
C           -2.80765413017838        2.14858672853694        0.48474125914502
C           -3.34238811635993        0.72479943247599        0.48698726766773
C           -4.15893879093315        0.28127648313853       -0.55594611770777
C           -4.67930620894941       -0.99934721319540       -0.57158460506477
O           -5.49300565127646       -1.50724427564383       -1.53991223776822
C           -5.94661818632672       -0.65682995408686       -2.56152271247168
C           -4.36912424929069       -1.89240714602826        0.47906864135005
O           -4.90895569402859       -3.13757702378158        0.36683699474885
C           -4.69299603135560       -4.06197291315616        1.40187770923344
C           -3.56979374311540       -1.44967498602943        1.51546183082362
C           -3.06818828901613       -0.15307763770917        1.51926975920390
C           -2.05430726563084        2.43642495405425       -0.84083830054111
C           -1.13471835551827        1.30838292063243       -1.34700389066553
C            0.11027407955344        1.12622995222408       -0.53755915093546
N            0.64959949250157       -0.03364525173092       -0.19089053087237
C            1.82617229518974       -0.16426867036880        0.40813251528892
C            3.46379962305437       -1.16941438254799       -2.30026513002522
C            4.61738265285444       -0.86146190762965       -1.60796923097094
C            5.34317898738481        0.33148422349694       -1.84293662068271
C            6.50001207360046        0.61977959045751       -1.15611380453802
C            6.97921305054596       -0.23963670121702       -0.17514659197274
O            8.06428057413329       -0.02180088295584        0.61597363049459
C            8.83183781604306        1.13600725901944        0.42544238633296
C            6.29509072909925       -1.46096268538908        0.06225774966580
O            6.84934741193781       -2.23791531405619        1.03820883874571
C            6.29112174722377       -3.50113273033418        1.28763438060457
C            5.15755203145076       -1.75504903783789       -0.63999033172060
C           -0.09601319724170       -1.25318580890151       -0.46020727416527
C           -4.01612288781977        3.11802284551583        0.62594818430006
C           -4.81577799567798        2.83536500945109        1.89742066469798
C           -3.61569111942098        4.59193310420688        0.59292276823769
H           -4.39441234524805        0.95587579237443       -1.36275886389894
H           -6.48765883816694        0.20669896719924       -2.16088131818577
H           -6.62702058702242       -1.25881162105576       -3.16222530173022
H           -5.12497010161122       -0.30779621575913       -3.19531293066502
H           -5.09544203815264       -3.70486477852127        2.35566095794106
H           -5.22662771630293       -4.96231022103222        1.10133415260579
H           -3.63000865109734       -4.29674389227137        1.52263191296290
H           -3.33190100011387       -2.10060338434122        2.34192784986168
H           -2.47170586371301        0.16559767870473        2.35987979941706
H           -2.79513602116727        2.64337955954562       -1.61591812586389
H           -1.46012592660784        3.34214165603664       -0.71424946186023
H           -1.71035320499972        0.38599328688634       -1.41501795864232
H           -0.85597695637181        1.58970534241469       -2.37270283977052
H           -0.90179286412493        1.67595007485997        1.43853668916870
H            0.71770740551442        2.00110704105283       -0.36814595592372
H            2.14227531723316       -1.11870121097081        0.77085195965136
H            2.37511987762470        0.70962516989980        0.69210434067523
H            3.10016660688518       -0.53341416811901       -3.08295720197954
H            2.98316279083198       -2.12411401830919       -2.18612666463248
H            4.99072813641784        1.01053625208206       -2.60349570993383
H            7.02414154016706        1.53874164953395       -1.37066909484285
H            8.24521543118518        2.04201492958587        0.61007209948600
H            9.26242983545674        1.17962010783265       -0.57747416129772
H            9.63635860396837        1.07920852357178        1.15588129533268
H            6.91157186552306       -3.94751324367706        2.06317705509765
H            5.25581086969705       -3.42520384612213        1.64049988317977
H            6.32552274210541       -4.13814120596624        0.40096624261089
H            4.62521709943861       -2.67678991535326       -0.47302496008799
H           -0.18630248769558       -1.41224142382118       -1.53465971289027
H           -1.09435666409958       -1.19605555299406       -0.01843357682920
H            0.42885308644694       -2.10232239147086       -0.02974695997366
H           -4.67511106052523        2.93014230663544       -0.23096764146785
H           -4.21227885622503        3.05435325709820        2.77069220892436
H           -5.13055333191243        1.79530593084661        1.93729119421878
H           -5.70299607972093        3.46446698160703        1.92328835309818
H           -2.92926284785256        4.80772483228761        1.40428833965823
H           -3.15286105371567        4.86238456884041       -0.35201555748862
H           -4.50196466672570        5.20975222533703        0.72053165988894
H           -1.14590630707487        3.11465929383002        3.20767524198493
