72
 energy: 35.656986097388 xtb: 6.6.1 (8d0f1dd)
N           -1.95638657421234        3.11190493059320        2.57238953269608
C           -1.81204350169674        2.31598207989066        1.61346114530315
C           -2.81797837909699        2.15855961022822        0.50427135291661
C           -3.34711257955272        0.73281199843169        0.50319409902934
C           -4.14582709105267        0.28474624255930       -0.55282908976787
C           -4.66104638647358       -0.99728662182500       -0.57520451324837
O           -5.45755040194763       -1.50881866994889       -1.55585573275487
C           -5.89578847068745       -0.66174284343703       -2.58710538975342
C           -4.36686404808164       -1.88806018700106        0.48220947256395
O           -4.90329455474796       -3.13517568846065        0.36393539654574
C           -4.69562740811782       -4.05885808984916        1.40156079511675
C           -3.58647433553760       -1.44059152903221        1.53103484129388
C           -3.08881324808066       -0.14213604651097        1.54207186392944
C           -2.05598091797632        2.45160640730103       -0.81865657510262
C           -1.14341077134695        1.32481822489211       -1.33472480576993
C            0.08967049157818        1.14572321993003       -0.52225996184832
N            0.61535534632118       -0.01067030182533       -0.13853038936145
C            1.75623317533615       -0.11776385698139        0.52877538273551
C            3.57405307748724       -1.25131290058724       -2.46336275873672
C            4.68856881831434       -0.92370265306539       -1.72472891674967
C            5.41025229409244        0.27831659959919       -1.95284214036097
C            6.51292058975173        0.60768590327434       -1.19974371352838
C            6.96984053366663       -0.23866039460179       -0.19229053309084
O            8.04840872608786       -0.01768585803689        0.61003868787642
C            8.81344756820504        1.14401350941109        0.42359181699853
C            6.28479625197116       -1.46231490681181        0.04475411806794
O            6.82751982568606       -2.22364810601032        1.04127398373792
C            6.28212800814519       -3.49121999819956        1.29208089728995
C            5.18893420214954       -1.79133970983508       -0.70767253750176
C           -0.09787374827011       -1.24132286147381       -0.44022791879783
C           -4.03291957891186        3.12259154061674        0.62995523962248
C           -4.84925548231438        2.84053175080730        1.89039501084137
C           -3.63805768668679        4.59802203127231        0.59677635848547
H           -4.36991857243163        0.95711962061458       -1.36493246403708
H           -6.44685609564347        0.20043474056358       -2.19686049715554
H           -6.56531958670089       -1.26852168654880       -3.19532069515686
H           -5.06452860371783       -0.31148989917929       -3.20903955397457
H           -5.11151637178477       -3.70334953340449        2.35021665612080
H           -5.22201584226602       -4.96152037177759        1.09494129860789
H           -3.63295974312287       -4.28910257559182        1.53495837060317
H           -3.36148836193271       -2.08961010150417        2.36258079116167
H           -2.50579213207049        0.17811784025391        2.39133170177817
H           -2.79001037872459        2.67039696896541       -1.59658374020280
H           -1.45159290424288        3.34924892333559       -0.67574780162169
H           -1.71683238974081        0.40187262032311       -1.39942934765392
H           -0.85558540566556        1.60409787197206       -2.35926514860967
H           -0.92002666388241        1.69189376279723        1.45474459931814
H            0.68512098524146        2.02334308087641       -0.32385549853485
H            2.12311701781966       -1.07318459041880        0.83014537933278
H            2.30130535702217        0.76688911102105        0.78968745164482
H            3.20401012488526       -0.60416245611839       -3.23754370886087
H            3.05875670058607       -2.18240876820299       -2.31191872032375
H            5.07018985431387        0.94524021468389       -2.73085084881958
H            7.02665095142409        1.53805221930541       -1.39281578787940
H            8.22912150114495        2.05109177606116        0.60318681688881
H            9.25275936244335        1.18386994121229       -0.58060685090327
H            9.61320527402229        1.08450892949844        1.16027432886380
H            6.90316596140782       -3.92597954119388        2.07377074033945
H            5.24799315191641       -3.42903273499896        1.64890923090258
H            6.32042254215453       -4.12925783304280        0.40072528498001
H            4.66533206317024       -2.72080215085300       -0.54698405509179
H           -0.17304994893013       -1.38023455913202       -1.51903354742405
H           -1.10339266987016       -1.21699614228125       -0.01579538873214
H            0.43992703559462       -2.08618529220607       -0.01714802596980
H           -4.67834746282644        2.92848427927621       -0.23556678635695
H           -4.25690269706149        3.06769279410199        2.77048610957154
H           -5.15850979286563        1.79870163564829        1.93131550676346
H           -5.74072513965554        3.46355832334032        1.89655081016054
H           -2.96194918333327        4.82025821160809        1.41560662904006
H           -3.16235844160987        4.86695596592464       -0.34278650898026
H           -4.52973866231823        5.21057665772823        0.70909220286032
H           -1.19292008209955        3.14150023458317        3.24503872050554
