72
 energy: 29.990368163889 xtb: 6.6.1 (8d0f1dd)
N           -1.74651279979877        2.96859695714350        2.43082599612235
C           -1.69057429692009        2.24086904845199        1.41345398218042
C           -2.78476243721214        2.11408559045476        0.39047976047020
C           -3.33254555727829        0.69515590292098        0.42373303492591
C           -4.21738416477808        0.26690928743006       -0.56649702928214
C           -4.74668889450957       -1.01003172055102       -0.55813710656190
O           -5.62195202640457       -1.50396116704923       -1.47771369488202
C           -6.12392748749365       -0.63858258187304       -2.46316879501678
C           -4.38037700083538       -1.91328888306287        0.46496465500969
O           -4.94088724065397       -3.15105873922550        0.38076008738689
C           -4.68127314156651       -4.07749052910167        1.40445762599912
C           -3.50834581845304       -1.48603956079300        1.44805517500226
C           -2.99396655907937       -0.19432210967715        1.42687304207334
C           -2.10606784711993        2.38485259231635       -0.97552568009942
C           -1.17419694667179        1.26162619001454       -1.46899804455354
C            0.08677616407148        1.11792510361375       -0.66915356196782
N            0.67427898467433       -0.05769119453451       -0.34562788521501
C            1.97307409087012       -0.20695257785370        0.02180128963248
C            3.19925051757053       -0.91710154972150       -1.84771628332299
C            4.49724374783856       -0.69157253955184       -1.31141806408009
C            5.21845586902695        0.48950622301660       -1.53887992757308
C            6.44733961867050        0.70812868967528       -0.94453680839502
C            6.98952463366275       -0.23081774981318       -0.08327043922086
O            8.16361555060475       -0.09377724031313        0.59862011322033
C            8.93056283493818        1.05958642407812        0.39588179361220
C            6.29166490106028       -1.43742522319263        0.14892041389006
O            6.90420923659789       -2.30110238466664        1.01249195098428
C            6.30550066119430       -3.54877439805411        1.24193782257891
C            5.07719161512803       -1.65098073949338       -0.45709517497695
C           -0.07820257259909       -1.28335460861020       -0.51981042017526
C           -3.96171733259496        3.10354361403982        0.60790372857879
C           -4.69306031150042        2.81322559932559        1.91737332874719
C           -3.52975663727219        4.56780777372859        0.57567369170251
H           -4.49880974966037        0.95068195762135       -1.35040663999279
H           -6.62891688425265        0.22753310157284       -2.02286328553312
H           -6.84453904557297       -1.22787786679886       -3.02799705657564
H           -5.33551743450850       -0.29240476509463       -3.13904985089022
H           -5.01368586726262       -3.70679090917991        2.38019092545236
H           -5.25332038258469       -4.96658336398407        1.14323295930243
H           -3.61803212143581       -4.33600402919978        1.45808070472959
H           -3.22435173801680       -2.14608552378725        2.25254554782009
H           -2.33822508781517        0.11337089552493        2.22703719901638
H           -2.88665481549667        2.54444647631502       -1.72253363543563
H           -1.53327582384910        3.31003663041594       -0.90517852243517
H           -1.73590060504280        0.32793006392843       -1.50134625909056
H           -0.91322122085627        1.52027964066842       -2.50532406449152
H           -0.80565799910154        1.65567065610745        1.12790515188134
H            0.71189727377536        1.99781137189432       -0.58912417661380
H            2.22995556512073       -1.05735126577898        0.61234018074954
H            2.46326300136245        0.68052994173843        0.37823822484069
H            2.92053985797518       -0.32461006916858       -2.70068011044369
H            2.84884055404623       -1.92875156812230       -1.91227842299654
H            4.82391097379653        1.23588569403527       -2.21248377315181
H            6.97877384520144        1.62573812648063       -1.14867874966660
H            8.39517699335084        1.96112002445157        0.70993783540048
H            9.24381090774927        1.17483156950703       -0.64261466359457
H            9.81461010672928        0.93659418096600        1.01785558678182
H            6.97801881834725       -4.07494766524105        1.91818046956161
H            5.32041455953093       -3.44550044450395        1.71446423079359
H            6.20811316872337       -4.12848083651891        0.31999867822137
H            4.53528059734806       -2.56921659373883       -0.29415387518718
H           -0.20855659652383       -1.49958992867315       -1.57988861146806
H           -1.06019064748989       -1.20719171477224       -0.04752660161430
H            0.47746613238299       -2.09992072725013       -0.06483652525534
H           -4.66964244302939        2.94599701736313       -0.21368694926237
H           -4.03339033748347        2.99632557367268        2.75674692017458
H           -5.03184064696496        1.78055202546973        1.95287369315275
H           -5.55902616205283        3.46518344047668        2.01006943527585
H           -2.80000065300014        4.75698047734397        1.35516770192236
H           -3.10985645980026        4.84297709736396       -0.38769472911353
H           -4.39350664770978        5.20374395375320        0.75669826905021
H           -0.92359772731325        2.97773997748369        3.02751013377257
