72
 energy: 35.221346326978 xtb: 6.6.1 (8d0f1dd)
N           -1.87120169518291        3.05397473247806        2.51641230265920
C           -1.75964115324021        2.28398081480370        1.53433137118891
C           -2.80086877949282        2.13880570147010        0.45748523489884
C           -3.33925617407062        0.71640488050889        0.46871601401994
C           -4.17553200429602        0.27703245600993       -0.55944747443757
C           -4.69853204866193       -1.00261198443902       -0.56799223753300
O           -5.53021149224623       -1.50665512941319       -1.52276178153213
C           -5.99777472685425       -0.65153347164132       -2.53391836684790
C           -4.37218584542641       -1.89842090024190        0.47518829099488
O           -4.91812775612507       -3.14150983052589        0.37074775341294
C           -4.68971689408150       -4.06659555761094        1.40260851939455
C           -3.55149422343902       -1.46002559127199        1.49671287794551
C           -3.04619290689033       -0.16476304121332        1.49314940427403
C           -2.06718332878558        2.42147038785922       -0.87935826102329
C           -1.14240038488032        1.29450571510913       -1.38155464978976
C            0.11159830203037        1.11882478325177       -0.57654351500844
N            0.66427155051873       -0.04238002325862       -0.23304988793515
C            1.86372164327029       -0.17963877493648        0.31953895448184
C            3.39963955857302       -1.10594542446326       -2.18796561704121
C            4.57866134275155       -0.81335933504282       -1.52547003890075
C            5.30473172284693        0.37837129451758       -1.75729828343708
C            6.48260112299508        0.64564844402735       -1.09652984514862
C            6.98269680487742       -0.23742853906062       -0.14882054483396
O            8.09404053006266       -0.04211130368332        0.61222715016860
C            8.86018452846545        1.11547450875100        0.42117098178004
C            6.29411373829381       -1.45480850463980        0.08735118298336
O            6.86646445370110       -2.25644158305609        1.03233480093712
C            6.29559586459648       -3.51514068032305        1.27554881568333
C            5.13329581303854       -1.72549423137143       -0.58672524712179
C           -0.08872705917978       -1.26328742714458       -0.47576410256836
C           -4.00082783925874        3.11393248773315        0.62038693276031
C           -4.78087787430766        2.82910733892013        1.90332152882861
C           -3.59112821157323        4.58507339658632        0.58791724064665
H           -4.42414877201084        0.95425364076952       -1.36002167896702
H           -6.52831646131370        0.21290771075235       -2.12135695195825
H           -6.69008643665404       -1.24934338581867       -3.12493576842847
H           -5.18525560761542       -0.30337687594102       -3.17965230212927
H           -5.07232221813408       -3.70567963018122        2.36323890482989
H           -5.23457525561952       -4.96381263129112        1.11290958037224
H           -3.62617572518209       -4.30816860511376        1.50411030242025
H           -3.30033738600699       -2.11337307622221        2.31739646581427
H           -2.43243372729399        0.15114693260807        2.32251645617170
H           -2.82003473465431        2.61580707168692       -1.64677617521306
H           -1.47966961207663        3.33344839925132       -0.76865013266638
H           -1.71525861564080        0.36935575742734       -1.44022861033568
H           -0.87159854932264        1.57106711870899       -2.41087115710550
H           -0.87203380693885        1.67042995759313        1.34981132387995
H            0.71975892719150        1.99981700686958       -0.43075481408943
H            2.17282370736092       -1.12756218657995        0.70507302959373
H            2.41199757455495        0.69029458813511        0.61230654614244
H            3.04550554053809       -0.47842833285559       -2.97826190605316
H            2.94324029956507       -2.07241855886923       -2.10536861999119
H            4.93875845410400        1.07626171026844       -2.49420808442521
H            7.00932967313586        1.56404015682857       -1.30733572235412
H            8.28566745915516        2.02018466349714        0.64304559988338
H            9.26120876529016        1.18453013568905       -0.58943362385016
H            9.68980319404136        1.03940781643925        1.12035604089331
H            6.93207778136169       -3.98533940442765        2.02362619417459
H            5.27335784156212       -3.42827847015046        1.66339640591619
H            6.29161323944650       -4.13708466909972        0.37716747303690
H            4.59794403174192       -2.64606270292450       -0.42197938775865
H           -0.19228640364658       -1.43650838800062       -1.54654497518977
H           -1.08178735054575       -1.19455310665773       -0.02414277873708
H            0.44220282950666       -2.10713463131858       -0.04044843407161
H           -4.67468192214946        2.93540081483101       -0.22656934312737
H           -4.16087387020612        3.03770922481119        2.76717339468022
H           -5.10232166856860        1.79102157237142        1.94153210022208
H           -5.66252592635422        3.46496669485673        1.94904263100660
H           -2.89208890388595        4.79291518042598        1.39047680055931
H           -3.14059214500345        4.85658107324754       -0.36258074058218
H           -4.47103050485863        5.20855611955943        0.73113270306091
H           -1.08172458726442        3.07490744582320        3.15755453782771
