72
 energy: 35.697827154714 xtb: 6.6.1 (8d0f1dd)
N           -1.94501324925747        3.10664775456408        2.56402193886455
C           -1.80351938125110        2.30984063312011        1.60655227584790
C           -2.81123424756016        2.15348057558471        0.49849559556920
C           -3.34397004604199        0.72891971075304        0.49611925674112
C           -4.15058250067566        0.28334702200352       -0.55406265000542
C           -4.66967257659244       -0.99772685394426       -0.57328588716691
O           -5.47422343542053       -1.50752071926803       -1.54830082015814
C           -5.92074626326492       -0.65952668194671       -2.57516329200668
C           -4.36766327197939       -1.88946513589250        0.48099974380120
O           -4.90430993855257       -3.13568352951842        0.36492120779053
C           -4.69460501522394       -4.05965950992582        1.40157665170021
C           -3.57917485361872       -1.44455759396566        1.52466768915079
C           -3.07935661090372       -0.14733710024569        1.53214748732764
C           -2.04883354842846        2.44449096888112       -0.82147664183850
C           -1.13327837167353        1.31601134925871       -1.33040769088504
C            0.10429450789407        1.13244709094432       -0.51865738701413
N            0.63936641053164       -0.02823326467059       -0.17048517462793
C            1.80563359618266       -0.15249385405404        0.44930985411050
C            3.49667605901906       -1.20005499340773       -2.35556039334366
C            4.63785609796864       -0.88525294705097       -1.64858766819939
C            5.36328508695486        0.30847380014736       -1.88503862382514
C            6.50881477749596        0.60744375630060       -1.18518149039131
C            6.97638207574071       -0.24026488840074       -0.18789099382649
O            8.04892187125104       -0.01120016166096        0.61673190999878
C            8.81645206871498        1.14703025752496        0.42584799131665
C            6.29411164536239       -1.46348610452796        0.05066463781529
O            6.83923465651576       -2.22846385313772        1.04153502596033
C            6.28832800788063       -3.49450978745458        1.29358543361338
C            5.16964580810604       -1.77000910515271       -0.66617584118670
C           -0.09905349209668       -1.24903923878099       -0.45288387246981
C           -4.02370834138172        3.12003494948859        0.62876764317695
C           -4.83314154467280        2.83842441888103        1.89427559226177
C           -3.62784954527051        4.59525857228740        0.59537057190837
H           -4.37948661424941        0.95660109185640       -1.36391661021344
H           -6.46709366450260        0.20347407198795       -2.18066761160878
H           -6.59503704197617       -1.26369287767177       -3.18061831822525
H           -5.09458880833006       -0.31000800444954       -3.20290917606486
H           -5.10693233003868       -3.70440563332501        2.35172222701947
H           -5.22248783214170       -4.96155218731658        1.09574622185251
H           -3.63205315878055       -4.29102026545557        1.53196307006795
H           -3.34809684757546       -2.09424486820493        2.35398404694332
H           -2.49175214502679        0.17269008852254        2.37833200082092
H           -2.78326137663448        2.65742914845126       -1.60026709245458
H           -1.45083519543319        3.34664611545311       -0.68682768230704
H           -1.70951761066585        0.39469204739162       -1.40265629418451
H           -0.84787208506566        1.59943330371376       -2.35347900964279
H           -0.91772313020655        1.67889296639470        1.48271964444859
H            0.71280530719979        2.00265694073379       -0.33743936189591
H            2.12921373691619       -1.10781297383359        0.80187330284231
H            2.35317786252301        0.72451386039578        0.72756063424725
H            3.12975200791425       -0.55932294747108       -3.13475501315156
H            3.00427716499458       -2.14841198591282       -2.22796000853757
H            5.01870187171398        0.97776564812379       -2.65775339981109
H            7.03150973419108        1.52669797562724       -1.40206530053018
H            8.22471147531645        2.05297825931022        0.59384417145938
H            9.25379349932554        1.18514255378753       -0.57643615641811
H            9.60905626645189        1.09856273296908        1.17045155242246
H            6.90144110215782       -3.92866944839439        2.08161999067093
H            5.24777404868142       -3.42809315033769        1.63360667465175
H            6.34178453866026       -4.13696191209824        0.41164029129361
H            4.63938011713130       -2.69274299601377       -0.49829513538010
H           -0.18357052615505       -1.40077375870635       -1.52929680872508
H           -1.09973837397663       -1.20173556519286       -0.01683745885128
H            0.42683943993505       -2.09749042392941       -0.02332729526568
H           -4.67483884150597        2.92730678837530       -0.23311322788216
H           -4.23797971999846        3.06269089426211        2.77206464662533
H           -5.14459968919072        1.79740946398720        1.93509564010063
H           -5.72297880778971        3.46406933961771        1.90998774775912
H           -2.94791527485936        4.81498728635244        1.41113009535739
H           -3.15872928144643        4.86521339361399       -0.34661537031866
H           -4.51722332862188        5.21018271135473        0.71493054936658
H           -1.17812472308397        3.13464744420157        3.23217486946352
