72
 energy: 34.995358539782 xtb: 6.6.1 (8d0f1dd)
N           -1.84663019083320        3.03694562937666        2.49989664616285
C           -1.74559855624457        2.27541332209303        1.51037407194661
C           -2.79760442152714        2.13388888259534        0.44403058457096
C           -3.33776405521134        0.71216433780169        0.45968129010755
C           -4.18378340474399        0.27492488704382       -0.56105268763365
C           -4.70809392381832       -1.00419282994447       -0.56613471445556
O           -5.54857709721448       -1.50627973395552       -1.51404998840747
C           -6.02302723364040       -0.64894803541127       -2.52005424445704
C           -4.37375999419789       -1.90142851645521        0.47321364843961
O           -4.92264672817041       -3.14347874138972        0.37271781017762
C           -4.68799568275699       -4.06881601625290        1.40302500552508
C           -3.54261489832645       -1.46522632283877        1.48722227737367
C           -3.03546765842426       -0.17065544735380        1.48005404625522
C           -2.07438779789823        2.41413088226655       -0.89853519690040
C           -1.14803577776213        1.28755735954747       -1.39871153891923
C            0.10790000307574        1.11660510908198       -0.59372900618107
N            0.66874803594860       -0.04615403333588       -0.25487459411698
C            1.88101081377299       -0.18615147905790        0.27213039300902
C            3.36710139547335       -1.07336229621306       -2.13027215989669
C            4.56018408634451       -0.78935234133963       -1.48388761781191
C            5.28633441602239        0.40170495328226       -1.71389143082220
C            6.47427462696400        0.65873872876005       -1.06623869958528
C            6.98388034345794       -0.23607297514191       -0.13546334075908
O            8.10839183321674       -0.05232749264711        0.60980596996231
C            8.87447648470661        1.10449519612035        0.41630459398965
C            6.29306063063101       -1.45148689340894        0.09999385798627
O            6.87441180848286       -2.26562813131489        1.02884865175324
C            6.29764594876623       -3.52206773651622        1.26920255915268
C            5.12136800849674       -1.71085937401790       -0.56013728002543
C           -0.08588964578383       -1.26803522060547       -0.48436617034166
C           -3.99310286224128        3.11187740731348        0.61771342573889
C           -4.76338646476838        2.82598568391116        1.90616838406736
C           -3.57886479158748        4.58162739924649        0.58542289528676
H           -4.43890239846771        0.95346349668722       -1.35842487457933
H           -6.54841360474777        0.21588651961113       -2.10175376125190
H           -6.72110818239275       -1.24486707526502       -3.10608914750625
H           -5.21515187507412       -0.30119543759895       -3.17174158890413
H           -5.06064942769984       -3.70593229512331        2.36687874023526
H           -5.23834210607191       -4.96448035214241        1.11889576754588
H           -3.62431417183534       -4.31373827766354        1.49495732291411
H           -3.28495330735482       -2.11982562941116        2.30490561719727
H           -2.41329238994499        0.14378866238246        2.30377117168316
H           -2.83299456423962        2.60203352168693       -1.66196294900355
H           -1.48977283052414        3.32887930655949       -0.79579985196067
H           -1.71908503408204        0.36089500394726       -1.45267024148935
H           -0.87963907993274        1.56117514571937       -2.42952121809192
H           -0.85807414464229        1.66762793951071        1.30579296582076
H            0.71832232065623        1.99922576072833       -0.46173152235143
H            2.18798649131793       -1.12867058795762        0.67276372772491
H            2.42727011814869        0.68300021184242        0.56952852958889
H            3.01926499337868       -0.44952999321603       -2.92529736629692
H            2.92357427319400       -2.04584577328190       -2.06599083747840
H            4.91446065433390        1.10883521379423       -2.43907466119987
H            7.00226803662850        1.57686017028184       -1.27538248970954
H            8.30712950033232        2.00874999576749        0.65742868219980
H            9.25755405785420        1.18319082976452       -0.60074619246710
H            9.71600536605088        1.01912365098056        1.10005201618555
H            6.94188813064821       -4.00391699405266        2.00315104321427
H            5.28236900970676       -3.43090899422600        1.67438358285894
H            6.27461356553135       -4.13601680484134        0.36545705554862
H            4.58485136899070       -2.63107042499616       -0.39652667782402
H           -0.19576266214862       -1.44843764165994       -1.55316103314959
H           -1.07638020864276       -1.19682450803715       -0.02810254011703
H            0.44955025739038       -2.10744625824803       -0.04616717822812
H           -4.67400015855534        2.93782192753400       -0.22427108863003
H           -4.13528559106063        3.02946060696162        2.76523390923321
H           -5.08823220968724        1.78893414798206        1.94369959215655
H           -5.64206685084988        3.46515855415152        1.96154435133089
H           -2.87364042126772        4.78560912633566        1.38352158362662
H           -3.13443406091330        4.85376619437336       -0.36774220818530
H           -4.45557589755478        5.20776746446648        0.73628329623721
H           -1.05009203278407        3.05549693725742        3.13210113296189
