72
 energy: 35.556802893176 xtb: 6.6.1 (8d0f1dd)
N           -1.94240659210590        3.09592110490865        2.56622287398154
C           -1.80148412621067        2.31157773649596        1.59710531335404
C           -2.81554943574170        2.15516487271381        0.49410790075323
C           -3.34597388105250        0.72963334366379        0.49582521341962
C           -4.15249225766330        0.28320924520830       -0.55480527504395
C           -4.66874146078505       -0.99870537615898       -0.57408730250940
O           -5.47259395686496       -1.50870509590551       -1.54917143254940
C           -5.91712323266781       -0.66075833934272       -2.57728334692915
C           -4.36732991872320       -1.89013218150172        0.48128196201073
O           -4.90542198423485       -3.13610645071231        0.36618256626900
C           -4.69457076162507       -4.06046777343819        1.40265096833110
C           -3.57842467418407       -1.44429787935082        1.52477692514185
C           -3.07944142388266       -0.14631428238793        1.53228834117579
C           -2.06061870711836        2.44602433469219       -0.83289291995358
C           -1.14680849696918        1.31923944592990       -1.34798847658362
C            0.09093643213059        1.14404242696822       -0.53850178834695
N            0.61094528443011       -0.00945372858937       -0.14134633317929
C            1.73556992129155       -0.11362196787106        0.55342113355536
C            3.58841527934529       -1.24675297182944       -2.46462617070912
C            4.69062148123746       -0.91336881699486       -1.71174693930922
C            5.39697845080605        0.30023804156944       -1.92214821092367
C            6.50497075779976        0.62182803405900       -1.17551671138870
C            6.97110568189078       -0.23652953301885       -0.18272658772621
O            8.05851147939370       -0.02329579151045        0.60812739620212
C            8.82199945428456        1.13960798237280        0.42356523939669
C            6.28525526955036       -1.46014554901456        0.05456444438091
O            6.83250075770757       -2.22776042881577        1.04299586065842
C            6.28503176739172       -3.49560412832485        1.29174930442883
C            5.18071500883645       -1.77996590141179       -0.68863603632598
C           -0.09897990636572       -1.24129182119292       -0.44397784808257
C           -4.02767108251306        3.12144994204923        0.62765772285153
C           -4.83620987968203        2.83900199098896        1.89316177561739
C           -3.62918721755871        4.59591179877378        0.59434585907983
H           -4.38242447106937        0.95662750256288       -1.36460374036316
H           -6.46424127203395        0.20197350551847       -2.18258338244179
H           -6.59137109550713       -1.26634249610897       -3.18159162747670
H           -5.08941338844575       -0.31169393280490       -3.20446954044826
H           -5.10397787877891       -3.70379066712957        2.35381403010890
H           -5.22511389866658       -4.96167694897753        1.09864653376164
H           -3.63168022192478       -4.29356083235769        1.53002037891561
H           -3.34845729953361       -2.09384676739480        2.35478155960077
H           -2.49014409360293        0.17354323169394        2.37771047975501
H           -2.79836489237888        2.65976145306168       -1.60865411647791
H           -1.45853149892940        3.34612171891343       -0.69686092248973
H           -1.71987328059001        0.39591411248385       -1.40997516325754
H           -0.86280526048687        1.59721920624708       -2.37376135083698
H           -0.90830369558302        1.69249122772531        1.43137841316185
H            0.68411157560975        2.02410625907692       -0.34597340851138
H            2.13285988273285       -1.07343484035552        0.80239961051644
H            2.29168471708049        0.77158736118364        0.78982370827962
H            3.22747231600105       -0.59939662354543       -3.24296438930608
H            3.06105972028505       -2.16980158400413       -2.30441160911026
H            5.05124604316008        0.97386363041349       -2.69231727972137
H            7.02033257603699        1.55057316533614       -1.36978452164897
H            8.23535497763159        2.04581416530595        0.60985924349216
H            9.25305127413539        1.18680282087743       -0.58253783578717
H            9.62636544056557        1.07657958036399        1.15587550364989
H            6.91130555183861       -3.93712532576581        2.06651912534728
H            5.25384353532064       -3.42853525182940        1.65600528757598
H            6.31337931601076       -4.12985429389764        0.39883311297752
H            4.65358581805469       -2.70742912315010       -0.52644387892279
H           -0.17236850583798       -1.37801601544854       -1.52299964316729
H           -1.10384918900048       -1.21816028418005       -0.01827323935732
H            0.43980850703767       -2.08549741304331       -0.02059376766924
H           -4.67822182852030        2.92937929302886       -0.23452104873763
H           -4.23768655800072        3.06221574859628        2.77003052743064
H           -5.14765010982694        1.79779365431305        1.93334229539439
H           -5.72596288358789        3.46471687245541        1.90764393772182
H           -2.94768983159937        4.81572111095808        1.40956353323768
H           -3.15898474536078        4.86523494083548       -0.34784597072234
H           -4.51849259273415        5.21093583793110        0.71335647355664
H           -1.17048159682368        3.12890455505515        3.22947358905283
