72
 energy: 7.596160411751 xtb: 6.6.1 (8d0f1dd)
N           -1.67289992636573        2.91920088769286        2.37597588597589
C           -1.64993293893728        2.21254829153361        1.34044069797906
C           -2.77431705611728        2.09916450203648        0.35031637738179
C           -3.32854657016432        0.68266857206260        0.39648579872667
C           -4.24272990230702        0.26142112828198       -0.56936591347836
C           -4.77553689587051       -1.01368105189445       -0.55105677033810
O           -5.67742446623532       -1.50148937934183       -1.44899393581638
C           -6.19933532349045       -0.63103606391331       -2.41899727789905
C           -4.38555151538943       -1.92131677556633        0.45844500101024
O           -4.95524350277927       -3.15699732310884        0.38698831449357
C           -4.67628300517435       -4.08383438873507        1.40478044512312
C           -3.48440273734817       -1.50124339510718        1.41784940773315
C           -2.96458219033606       -0.21198668595723        1.38622518401163
C           -2.13056139769277        2.36271116520167       -1.03357374747926
C           -1.19414985631901        1.24321056756404       -1.52527714367676
C            0.06736978721620        1.12991457085872       -0.72863112674069
N            0.67984651848519       -0.07314516266962       -0.41085872128197
C            2.06835142713209       -0.22866881924212       -0.17196366705185
C            3.04653099832965       -0.78641146674622       -1.60181563540564
C            4.45352988220802       -0.61435274622334       -1.16850676995862
C            5.17073244383944        0.55257074064281       -1.40464617764048
C            6.43081182093268        0.74190839938404       -0.85430565363118
C            6.99455470751000       -0.22704936448012       -0.04470614914739
O            8.19916480564720       -0.12600406818643        0.58557624628938
C            8.97132877912313        1.02505876865914        0.37871209734130
C            6.29056719296235       -1.42911433567831        0.18513252099183
O            6.92324138742479       -2.32585558464828        0.99567215771768
C            6.31157014326854       -3.56916777097733        1.22006030529064
C            5.04338556573295       -1.60566810197083       -0.37715696104979
C           -0.06859794440143       -1.29395756990981       -0.54959538944731
C           -3.93737335054541        3.09643742030546        0.60149508382802
C           -4.64030081785500        2.80353415372678        1.92562868451200
C           -3.49405314927408        4.55737536125406        0.56951286068038
H           -4.54409255107404        0.94915411179216       -1.34241975360691
H           -6.68992977958011        0.23585123100692       -1.96385395718391
H           -6.93589295415792       -1.21645571321032       -2.96711271060775
H           -5.42624994294265       -0.28578603225123       -3.11306848125572
H           -4.97829769969265       -3.70833950747543        2.38873505760797
H           -5.26380937392647       -4.96792818763649        1.16096981830874
H           -3.61426220457360       -4.35234990073993        1.42983584921539
H           -3.18108475752779       -2.16569316688265        2.21174119195151
H           -2.28451985312523        0.09006233032512        2.16805163550288
H           -2.92649638734062        2.50279911948509       -1.76789234759093
H           -1.56519831485002        3.29411284125982       -0.98619536913162
H           -1.74875739553531        0.30403212187793       -1.53746051315667
H           -0.94399534254185        1.48921805299450       -2.56757873082104
H           -0.76781158434001        1.64755646237310        0.99077718280976
H            0.70608960780845        1.99981520246186       -0.69191428983340
H            2.22819143931041       -0.95490388429132        0.61846130560651
H            2.44897262674663        0.71427913066631        0.24189329702359
H            2.85539965429685       -0.22563302219683       -2.51995958513254
H            2.79675710425892       -1.82436915480191       -1.79572466599588
H            4.76036158907435        1.32754605492549       -2.03578802654340
H            6.96296373103618        1.65978715402420       -1.05377666622059
H            8.46331833733818        1.92250476624418        0.74492453557829
H            9.23314543183744        1.16658870931294       -0.67173222113859
H            9.88263978604588        0.87201199086674        0.95358762289688
H            7.00531393848711       -4.12418170784843        1.85027700717303
H            5.35264109446371       -3.46196138514420        1.74245258594092
H            6.16049088649392       -4.12094187500086        0.28760386902103
H            4.49590853690536       -2.52072563661221       -0.21146374062451
H           -0.21897950088070       -1.53858857827998       -1.60289960868184
H           -1.04372453167593       -1.21657299352971       -0.06155502706355
H            0.50167563631175       -2.09293441851314       -0.08086570407931
H           -4.66468496007825        2.95013143465460       -0.20470863817098
H           -3.95812308885917        2.97142899483566        2.75020869482399
H           -4.99000658334102        1.77444616720552        1.96052319325338
H           -5.49606380913272        3.46469043612376        2.04420448350429
H           -2.74624614721285        4.73632316157293        1.33446184600585
H           -3.09239042196280        4.83564693525024       -0.40088543666027
H           -4.34875912594276        5.19895849406564        0.77261424294117
H           -0.83097958685365        2.91905537033497        2.94618797152679
