  72
        -99.26880752
 N         -1.7421028756        2.7108964778        2.4889879957
 C         -1.7321703203        2.1102465492        1.3940232061
 C         -2.9032156991        2.0226425004        0.4548270964
 C         -3.4312233582        0.5959184549        0.4316414292
 C         -4.4072240118        0.2367356856       -0.5002840018
 C         -4.9313788230       -1.0440304583       -0.5432953970
 O         -5.8847028306       -1.4669272477       -1.3991762667
 C         -6.4966682484       -0.5371377730       -2.2618063895
 C         -4.4558912501       -2.0257102464        0.3676606188
 O         -5.0108814121       -3.2482544765        0.2436896333
 C         -4.6447402301       -4.2625276207        1.1494408701
 C         -3.4891285438       -1.6625505906        1.2911451277
 C         -2.9872719686       -0.3668618117        1.3242744562
 C         -2.3590924261        2.4056219982       -0.9468079354
 C         -1.4886184747        1.3236061183       -1.6127160879
 C         -0.1453636745        1.1899489009       -1.0067540070
 N          0.4618789769        0.0421956780       -0.7171605810
 C          1.8471788943        0.0296535289       -0.3122860254
 C          2.7844006556       -0.3844717549       -1.4647083705
 C          4.2157621541       -0.2672414993       -1.0238936786
 C          4.8843200429        0.9461084568       -1.1343464406
 C          6.1891706694        1.0776147225       -0.7018192631
 C          6.8544304513       -0.0117782290       -0.1422778153
 O          8.1331054784       -0.0076968169        0.3038679323
 C          8.8954955128        1.0434990467        0.4155061304
 C          6.1860623583       -1.2618405119       -0.0297617846
 O          6.9112008187       -2.2537632745        0.5163701606
 C          6.3406541256       -3.5356102331        0.6551678412
 C          4.8733955058       -1.3614408668       -0.4670551603
 C         -0.2046710356       -1.2310802155       -0.8498558839
 C         -4.0745259604        2.9728225503        0.8453769846
 C         -4.7107988501        2.5613121801        2.1708933973
 C         -3.6618932357        4.4409327684        0.9046067636
 H         -4.7731168536        0.9761274829       -1.1929184243
 H         -6.9648215637        0.2792439389       -1.7035929260
 H         -7.2640518766       -1.0949690859       -2.7947539237
 H         -5.7833333578       -0.1266020048       -2.9839165814
 H         -4.8684698729       -3.9788186672        2.1820231156
 H         -5.2441846711       -5.1284461433        0.8754634481
 H         -3.5829978880       -4.5150719977        1.0614104151
 H         -3.1247226355       -2.3803257069        2.0081621291
 H         -2.2597152591       -0.1144553411        2.0801730935
 H         -3.2024482685        2.6113215327       -1.6049415109
 H         -1.7783440607        3.3246774384       -0.8592928831
 H         -2.0241513136        0.3760090381       -1.6195725951
 H         -1.3475713968        1.6344757221       -2.6562599026
 H         -0.8379940152        1.6072358122        0.9753898050
 H          0.4525867817        2.0854845470       -0.9217975125
 H          1.9706260938       -0.6655118634        0.5228353391
 H          2.1313053989        1.0271882684        0.0290879595
 H          2.6049131712        0.2748394085       -2.3155851805
 H          2.5632778043       -1.4081179458       -1.7682914323
 H          4.3884504996        1.7957485366       -1.5777583395
 H          6.6915645579        2.0236180512       -0.8194039827
 H          8.5797476084        2.0411385504        0.1640162869
 H         11.2707806533        2.5652767972       -0.6046240373
 H          9.8928815157        0.8465501241        0.7604214740
 H          7.1197684631       -4.1530012991        1.0975570223
 H          5.4726953869       -3.5167689442        1.3210767266
 H          6.0541824320       -3.9532531811       -0.3141392680
 H          4.3541020885       -2.3033392591       -0.3911055244
 H         -0.3894985861       -1.4738831765       -1.8986514566
 H         -1.1595993369       -1.2190522253       -0.3184544885
 H          0.4202685925       -2.0092073419       -0.4189950940
 H         -4.8335293081        2.8679072081        0.0618543262
 H         -3.9930693085        2.6689260635        2.9775898207
 H         -5.0546092171        1.5302912585        2.1389412970
 H         -5.5648362522        3.2006794355        2.3784327284
 H         -2.8877719001        4.5864519639        1.6517363560
 H         -3.3061672926        4.8021984457       -0.0567812520
 H         -4.5225749366        5.0413731247        1.1874914295
 H         -0.8833163907        2.7260731376        3.0303609215
