  72
        -99.27828956
 N         -1.3198366732        2.6123792411        2.2563882569
 C         -1.4805304605        2.1438302850        1.1197420704
 C         -2.7557433076        2.0720790565        0.3395193571
 C         -3.2862129663        0.6462350060        0.3559542708
 C         -4.3532281338        0.3014468798       -0.4742089429
 C         -4.8877548155       -0.9771112799       -0.4722098314
 O         -5.9226393918       -1.3891650779       -1.2280520833
 C         -6.5895101000       -0.4628206838       -2.0540287512
 C         -4.3322752322       -1.9665064113        0.3868119056
 O         -4.9178774888       -3.1763555887        0.3288082663
 C         -4.4994890485       -4.1886206682        1.2150172757
 C         -3.2634239131       -1.6180987023        1.1990476183
 C         -2.7500160239       -0.3286426853        1.1843156710
 C         -2.3459500089        2.4556839362       -1.1060467300
 C         -1.4898774097        1.3647110428       -1.7612720997
 C         -0.2733795093        1.0635726959       -0.9761563398
 N          0.2270576148       -0.1208320160       -0.8435109404
 C          1.5226501709       -0.2617010589       -0.1981092527
 C          2.5871878572       -0.7281711276       -1.1986406681
 C          3.9803268528       -0.4544929543       -0.7459345011
 C          4.4616588759        0.8501192554       -0.6900768188
 C          5.7678947887        1.1097756465       -0.3159429561
 C          6.6273476717        0.0706640415        0.0228853552
 O          7.9139659754        0.2010347612        0.3817707724
 C          8.5051183617        1.4809193666        0.4001422799
 C          6.1384907449       -1.2681888575       -0.0094992464
 O          7.0269893128       -2.2099830852        0.3523058324
 C          6.6386867065       -3.5643634357        0.3539624342
 C          4.8294910740       -1.5042827802       -0.4021209736
 C         -0.3304847603       -1.3560203102       -1.3779739618
 C         -3.8630794841        3.0224376966        0.8835998234
 C         -4.3326332853        2.5906148165        2.2699021132
 C         -3.4294839326        4.4843816569        0.9129759015
 H         -4.7820224756        1.0476083890       -1.1223376194
 H         -6.9992785601        0.3687998747       -1.4731666883
 H         -7.4051019882       -1.0167984043       -2.5142612128
 H         -5.9303216506       -0.0750907712       -2.8372347376
 H         -4.6160559935       -3.8797084388        2.2579764713
 H         -5.1493382838       -5.0382483793        1.0149341656
 H         -3.4597247880       -4.4778986075        1.0329768297
 H         -2.8268526536       -2.3457679198        1.8636699629
 H         -1.9334919151       -0.0886997988        1.8474445524
 H         -3.2344202930        2.6269804091       -1.7119222530
 H         -1.7777119937        3.3856113902       -1.0742773371
 H         -2.1105349296        0.4835084045       -1.9639715450
 H         -1.1297189587        1.7381969572       -2.7258186130
 H         -0.6285358251        1.7453640408        0.4436107660
 H          1.9261756792        0.6321464359       -3.3042710762
 H          1.4414917117       -0.9789094646        0.6261369515
 H          1.8066283909        0.7110243583        0.2084104965
 H          2.3963745882       -0.1432700504       -2.1580620263
 H          2.4597858559       -1.7853850167       -1.4321413606
 H          3.8185206701        1.6689673690       -0.9737799450
 H          6.1186070174        2.1288758417       -0.3009474042
 H          8.0139953391        2.1386560873        1.1231114467
 H          8.4839934126        1.9442251359       -0.5905132327
 H          9.5384068138        1.3198425133        0.7018862249
 H          7.5117720578       -4.1183032462        0.6933085068
 H          5.8072466575       -3.7407827434        1.0434371261
 H          6.3623129186       -3.9027210013       -0.6492053444
 H          4.4563046123       -2.5152182177       -0.4479246460
 H         -0.0693148904       -1.4713402344       -2.4308202589
 H         -1.4151331591       -1.3498858563       -1.2784842504
 H          0.0652784819       -2.1989438904       -0.8163644717
 H         -4.7101452321        2.9336560837        0.1942944277
 H         -3.5181827758        2.6748265310        2.9831900975
 H         -4.6886603549        1.5631677000        2.2629829801
 H         -5.1458913675        3.2330511859        2.5970193344
 H         -2.5667362767        4.6144290996        1.5599801522
 H         -3.1902617317        4.8552470891       -0.0799448081
 H         -4.2411838147        5.0897362763        1.3079584572
 H         -0.3985176391        2.6466660133        2.6756801300
