  25
        -42.10304421
 C          3.2193514546        1.1556947101        0.0111914554
 N          2.2764461506        0.0693062573       -0.0101804074
 C          2.5624161868       -1.2279441243       -0.0175103247
 N          1.4245401783       -1.9521420395       -0.0185763596
 C          0.3678892964       -1.0756557350       -0.0122857795
 C          0.9090266565        0.2042623256       -0.0080437817
 C          0.0869958283        1.3942680584       -0.0174300319
 O          0.4890031429        2.5348118996       -0.0359081878
 N         -1.2737944639        1.0654126853       -0.0063418987
 C         -2.2257508366        2.1732085786       -0.0083532112
 C         -1.8534493454       -0.1732722947       -0.0052497263
 O         -3.0352199411       -0.3585528562       -0.0019892382
 N         -0.9626534165       -1.3300676159       -0.0107940206
 C         -1.5251254069       -2.5478912521       -0.0165366445
 H          3.7436735966        1.1811975355        0.9674082678
 H          3.9512495366        1.0375228734       -0.7870180519
 H          2.6786488741        2.0922828186       -0.1206845420
 H          3.5511645709       -1.6433666942       -0.0177751279
 H         -1.6611593770        3.1015842627       -0.0413043265
 H         -2.8792997729        2.0952576290       -0.8759303536
 H         -2.8373135534        2.1353010966        0.8921492441
 H         -2.7091243318       -4.5564291560        2.1864826486
 H         -0.9189868422       -3.4308837911       -0.0251912783
 H         -2.5969868774       -2.5940576152       -0.0255909049
 H          1.3764526115       -2.9608620862       -0.0288544462
