25
 energy: 0.000000000000 xtb: 6.6.1 (8d0f1dd)
C            3.23720132972391        1.16630909158653        0.08434468864950
N            2.29877796055224        0.07527476373246        0.03981602671198
C            2.58028186251803       -1.21425391179017        0.03006175752192
N            1.43813944744728       -1.93419254010258        0.00098261751768
C            0.39035684826767       -1.05887462812143       -0.00790371763344
C            0.93510047688824        0.21347817468824        0.01709077332874
C            0.09450143016486        1.40504290868848       -0.00410946993748
O            0.49712746915594        2.54126690785742       -0.00342325656480
N           -1.25076628431515        1.06271869620815       -0.03085477937476
C           -2.21907191394203        2.15522079838987       -0.05001256521996
C           -1.81739470187490       -0.20012724136556       -0.04692818139228
O           -2.99983858926755       -0.37846413507442       -0.07008877579474
N           -0.92618577614240       -1.30210203518959       -0.03682761236648
C           -1.46982251276835       -2.64643077634382       -0.06029819901142
H            3.71247229913541        1.21471443890471        1.06488839270555
H            4.00791460421487        1.03430799217987       -0.67357688121503
H            2.69909982127087        2.09770098766290       -0.09130154035862
H            3.56654087521359       -1.63682977417947        0.04233139674524
H           -1.67107945562430        3.09322822573871       -0.02552706696334
H           -2.82428927394145        2.09428605349656       -0.95318074103337
H           -2.87644002486466        2.07745706351925        0.81450059976605
H           -1.17061985538665       -3.19584861009707        0.83242224714061
H           -1.14560246782873       -3.17511580834413       -0.95688266944647
H           -2.55549768731684       -2.55659960601237       -0.07459039105944
H            1.38130842369251       -2.94313824728853       -0.01389874052104
25
 energy: -0.100855622282 xtb: 6.6.1 (8d0f1dd)
C            3.23271763836442        1.18021760182986        0.08600560674871
N            2.29476174195906        0.08958536835190        0.03776206742559
C            2.58836790615958       -1.24366385255387        0.03038545207169
N            1.44166844362751       -2.00768998783678        0.00010934290049
C            0.40401697042665       -1.08546987348416       -0.00835935881301
C            0.92121856279735        0.21203515830635        0.01516223339301
C            0.09556353686906        1.40252707283801       -0.00457610900023
O            0.49165972869741        2.56986076406466       -0.00327724033316
N           -1.26730667062347        1.06828162527604       -0.03083351296814
C           -2.23334431584483        2.16578230289942       -0.05009865618867
C           -1.82196342014708       -0.18621942527538       -0.04708616273069
O           -3.01887241768970       -0.36654797042998       -0.07052969796786
N           -0.93248060449865       -1.29415718425166       -0.03676185592765
C           -1.46960596210818       -2.62875876514541       -0.05976525197461
H            3.71555424778584        1.23072484524518        1.06615237668894
H            4.00418338050268        1.04691853602431       -0.67429200837068
H            2.70354875352003        2.11687136181542       -0.08955711146076
H            3.57133460604892       -1.64368390517924        0.04355958264736
H           -1.68468629575471        3.10538978027247       -0.02548786076409
H           -2.84195628932089        2.11233018378687       -0.95292028754967
H           -2.89495802247613        2.09543821592286        0.81326513551323
H           -1.15200725781713       -3.16983237903040        0.83265288704693
H           -1.12760566831543       -3.14900621375437       -0.95561066972463
H           -2.55443986985299       -2.54182124493020       -0.07375596621955
H            1.44684558266311       -3.09008322601785       -0.01510902224796
25
 energy: 11.868026677857 xtb: 6.6.1 (8d0f1dd)
C            3.22737395139552        1.18590791776296        0.08701546463644
N            2.28746066583800        0.09637991701674        0.03445214048646
C            2.58782053167635       -1.26601497825771        0.03141831247410
N            1.44229501135935       -2.07786098593669       -0.00038403079785
C            0.41529555421916       -1.11431553650830       -0.00903260735584
C            0.90504492117214        0.20134658360043        0.01284657493508
C            0.09528613527246        1.38936964911121       -0.00484972355729
O            0.48024758295516        2.57012806383524       -0.00269975362663
N           -1.28790468865911        1.08095570651007       -0.03073085900599
C           -2.24925408729978        2.18377592073133       -0.05023656893740
C           -1.82412828068346       -0.16598779091021       -0.04709417821208
O           -3.02579885546052       -0.35448972687171       -0.07100830783009
N           -0.93962508568702       -1.27600728275623       -0.03648950317275
C           -1.46898678649121       -2.60547043897660       -0.05912117840893
H            3.71585247589815        1.24337746104660        1.06638938174665
H            4.00024586277392        1.05883110626020       -0.67523350111007
H            2.70551450084276        2.12855960072534       -0.08733153330924
H            3.57493881417112       -1.63726284809923        0.04527418111365
H           -1.70054651706431        3.12448591506076       -0.02524623404057
H           -2.86102329457375        2.13468911626779       -0.95244875360017
H           -2.91514842811295        2.11754774906335        0.81143590852870
H           -1.13303463759473       -3.14001461559287        0.83173842898908
H           -1.10959420729318       -3.11916984250028       -0.95313448264627
H           -2.55336349102846       -2.53098541576762       -0.07273977048115
H            1.54324665734682       -3.23874645607059       -0.01575549462329
25
 energy: 21.410868317136 xtb: 6.6.1 (8d0f1dd)
C            3.22542346538197        1.18604456779345        0.08716920581603
N            2.28574572510504        0.09642910862256        0.03231058346435
C            2.58401883885627       -1.27491488045247        0.03235829634045
N            1.43990873800545       -2.10472760397062       -0.00034060012950
C            0.41869389850355       -1.12495989596714       -0.00942693132323
C            0.89965390370908        0.19467556097887        0.01189382443372
C            0.09519680328206        1.38422912442753       -0.00468637038572
O            0.47502833774452        2.56494901318515       -0.00221321749948
N           -1.29821471967699        1.09242784772669       -0.03063521481389
C           -2.25791425241799        2.19533038818433       -0.05041876138245
C           -1.82623717009041       -0.15513595533397       -0.04708503756800
O           -3.02704574932892       -0.35280744723506       -0.07140260016985
N           -0.94213257992303       -1.26208233775208       -0.03612440103416
C           -1.46735500713431       -2.59361050678181       -0.05866712190251
H            3.71384948107238        1.24690882876287        1.06656009680324
H            3.99824433800926        1.06396817605041       -0.67593396757170
H            2.70469816214012        2.13093886925598       -0.08629765571039
H            3.57723057078503       -1.63173883689438        0.04571668351915
H           -1.71091296645342        3.13671585288873       -0.02503858512196
H           -2.87041483610952        2.14581995439873       -0.95247219053837
H           -2.92533535345952        2.12838668767422        0.81038717585558
H           -1.12297163797784       -3.12447334051198        0.83133052141527
H           -1.10020357107059       -3.10364510240807       -0.95179298320798
H           -2.55193068898632       -2.53016778893697       -0.07205137975402
H            1.59519057500657       -3.31953149496092       -0.01610545733996
25
 energy: 27.747817142678 xtb: 6.6.1 (8d0f1dd)
C            3.22606482306844        1.18611594553941        0.08723880711454
N            2.28683253987445        0.09653174746763        0.03113788645682
C            2.57963307802668       -1.27660192795394        0.03346924194126
N            1.43534265906571       -2.10826371664737        0.00008169166612
C            0.41779920095233       -1.12457409717858       -0.00957439549900
C            0.89929193256422        0.19386160602313        0.01172049982939
C            0.09525997761537        1.38514730077029       -0.00459817385627
O            0.47221138857854        2.56368637065511       -0.00202602780060
N           -1.30177220769615        1.09897392825459       -0.03060739513359
C           -2.26114994484229        2.19971978518047       -0.05053240771556
C           -1.82852563289879       -0.15084558164285       -0.04708637555054
O           -3.02767895717463       -0.35387094285222       -0.07158340256161
N           -0.94332121190007       -1.25348073637722       -0.03578092314082
C           -1.46599218437556       -2.58900009009586       -0.05844763572785
H            3.71332639858855        1.24784391869741        1.06681160543171
H            3.99850661376629        1.06581118215981       -0.67598192563387
H            2.70509038134600        2.13162254931645       -0.08620129846244
H            3.57584836839241       -1.62787509935895        0.04507852444197
H           -1.71553282977509        3.14144700186646       -0.02498501669280
H           -2.87334323662007        2.14862041686225       -0.95279014856173
H           -2.92853833014908        2.13102518486324        0.81025648773737
H           -1.11883428182790       -3.11799763149781        0.83119469546522
H           -1.09628293484777       -3.09710351094270       -0.95128292383343
H           -2.55057166458189       -2.53162448224870       -0.07180922441859
H            1.61855035982274       -3.37014033211600       -0.01666825330112
25
 energy: 35.825648424766 xtb: 6.6.1 (8d0f1dd)
C            3.22787065624541        1.18776776721164        0.08718353471591
N            2.28965092294306        0.09809703478873        0.02976066811621
C            2.57275937012312       -1.27467120562727        0.03669372145853
N            1.42717349478645       -2.09889892678855        0.00195334842927
C            0.41388542551821       -1.11767953509981       -0.00996321205854
C            0.90079302251266        0.19721109347937        0.01193351268209
C            0.09515101646249        1.39005267316899       -0.00445538965498
O            0.46856645052151        2.56573261628422       -0.00210277541660
N           -1.30358601396866        1.10499348204619       -0.03053449273050
C           -2.26303662238330        2.20233367261848       -0.05057776783136
C           -1.83225716223539       -0.14783244601043       -0.04709016715485
O           -3.02910455291326       -0.35433236047104       -0.07162463320428
N           -0.94526253851668       -1.24387930111645       -0.03553293448604
C           -1.46453071396667       -2.58539724588741       -0.05839845654464
H            3.71341386943144        1.24954018507234        1.06706873028826
H            3.99996773252680        1.06793488516280       -0.67571438272936
H            2.70645033646783        2.13347181936773       -0.08677757317905
H            3.57144010798918       -1.62247461102318        0.04313216649947
H           -1.71959279696805        3.14486124146608       -0.02495569615518
H           -2.87501967814103        2.14976417497033       -0.95299368125529
H           -2.93026973309907        2.13203337073682        0.81032612010893
H           -1.11526475265587       -3.11193880177494        0.83106406158799
H           -1.09279597672839       -3.09098204686789       -0.95109111303669
H           -2.54893024730818       -2.53284512464440       -0.07179026503327
H            1.64474268832885       -3.45383362231836       -0.01847941122143
25
 energy: 32.940792857639 xtb: 6.6.1 (8d0f1dd)
C            3.23136882580491        1.19311987860036        0.08679579324061
N            2.29073662040524        0.10775475083424        0.02662367423446
C            2.54406727538971       -1.26420047054502        0.04503355387572
N            1.40238212935069       -2.07456217868683        0.00943264276217
C            0.40399783311682       -1.09665809839035       -0.01117941537633
C            0.89893694382857        0.21222000400214        0.01261620744759
C            0.09471010315292        1.40534371856659       -0.00358991919033
O            0.45523030331499        2.57381870311048       -0.00277487704412
N           -1.31060304775417        1.12498389056166       -0.03021626775055
C           -2.26885795536678        2.21272406896546       -0.05072672563196
C           -1.83980713850101       -0.13655076814476       -0.04710298220195
O           -3.03120042504987       -0.35253591720131       -0.07168117201740
N           -0.95161893712995       -1.21339673560484       -0.03528190732944
C           -1.46148164720256       -2.57219775277943       -0.05820584447069
H            3.71305283644175        1.25267887342522        1.06714300042778
H            4.00138163612797        1.07174136669763       -0.67599527944644
H            2.71175295238349        2.14146596092831       -0.08767913976699
H            3.55156318514538       -1.60205969114094        0.03936044666645
H           -1.72848277609193        3.15571423335358       -0.02489633995087
H           -2.87975266965219        2.15540136389950       -0.95381237113977
H           -2.93525523459652        2.13744608584065        0.81068219097260
H           -1.10589655253560       -3.09505076119691        0.82894323532739
H           -1.08379875591718       -3.07439540634506       -0.94850953410268
H           -2.54559950023531       -2.53418623247808       -0.07161647736732
H            1.75538830054309       -3.73959009752823       -0.02632857997330
25
 energy: 25.016707436509 xtb: 6.6.1 (8d0f1dd)
C            3.23314251109915        1.19660987832881        0.08700289329930
N            2.28507399450856        0.11525948415654        0.02683099090445
C            2.49797751424687       -1.24397585391466        0.04575968819345
N            1.37578511913127       -2.02362919812409        0.01375609027290
C            0.39369357978282       -1.06103910539713       -0.01058440414549
C            0.89835412789652        0.23765452025224        0.01325655096894
C            0.09113678989806        1.43028725451345       -0.00407763774544
O            0.44062969131472        2.58481006893950       -0.00289033211392
N           -1.31020821394184        1.14532421856999       -0.03026358443022
C           -2.27179798337143        2.22178054422157       -0.05095244279648
C           -1.84297091658078       -0.13047551627545       -0.04697269330808
O           -3.02973201102770       -0.34707691312021       -0.07175998311049
N           -0.95378613026644       -1.18563348750213       -0.03385856524082
C           -1.45751718587705       -2.56134731353348       -0.05769648064861
H            3.71185559109708        1.25307608843978        1.06661357063513
H            4.00071087165377        1.07218721892784       -0.67557511000336
H            2.71810593602949        2.14889249436134       -0.08807598294195
H            3.51609514908066       -1.58340191649762        0.03782842234737
H           -1.73650192547648        3.16637550321107       -0.02514367957599
H           -2.88219562660515        2.15920176926749       -0.95409082681335
H           -2.93776319380632        2.14120157261458        0.81044607962431
H           -1.09666284425228       -3.08186766084075        0.82603331355951
H           -1.07476752492807       -3.06116243795889       -0.94467447784149
H           -2.54183953886269       -2.53399977344082       -0.07133032470200
H            1.88539652422975       -4.07002265045495       -0.03254716219305
25
 energy: 20.701972768643 xtb: 6.6.1 (8d0f1dd)
C            3.23201186582633        1.20122380247495        0.08737556366370
N            2.27160743273317        0.12403053438586        0.03311639748435
C            2.46190416478065       -1.21141062561062        0.03405091327854
N            1.36268221464932       -1.94261107264164        0.00859142791838
C            0.38722848412818       -1.01093416631718       -0.00656777198003
C            0.89870824931555        0.27920445635171        0.01285790879084
C            0.08058811477559        1.46287239657513       -0.00642048244274
O            0.43413056546030        2.61484421156933       -0.00197143723328
N           -1.29763680816824        1.14707037972932       -0.03082551873859
C           -2.26890827193849        2.22086819164643       -0.05096976514932
C           -1.83922158891940       -0.13720282989713       -0.04669986196669
O           -3.03056693035408       -0.32880408889077       -0.07178613576325
N           -0.95212952542679       -1.18635805254168       -0.03144327163910
C           -1.45475193076089       -2.56213508764618       -0.05710171449493
H            3.71163048031716        1.25012961533075        1.06602267853669
H            3.99883638799748        1.06660255013969       -0.67482484805394
H            2.72333169249011        2.15451686423134       -0.08837896247239
H            3.47742981931502       -1.58124588353220        0.04363566741463
H           -1.73743174129484        3.16861523581687       -0.02556067566611
H           -2.87953128944115        2.15686907634447       -0.95344726619916
H           -2.93450823169285        2.13905541698399        0.81014045448196
H           -1.09611707343911       -3.08450650917736        0.82593049521665
H           -1.07374078660850       -3.06261405483534       -0.94388572244698
H           -2.53948513810542       -2.52757162147024       -0.07121197362110
H            1.97615414933332       -4.36147995027549       -0.03359218672355
25
 energy: 20.074595507843 xtb: 6.6.1 (8d0f1dd)
C            3.23520949099633        1.21633650814081        0.08557769184235
N            2.26613432566752        0.14547994915686        0.03748358714150
C            2.45617371673154       -1.18335372993051        0.03106639733548
N            1.35275656809463       -1.89116783893163        0.00599570431984
C            0.37895011857658       -0.96823340225642       -0.00508171350755
C            0.89810055141716        0.31826059853760        0.01479721795136
C            0.06705279437546        1.48901414429625       -0.00390509474162
O            0.42829152713155        2.64632005614221       -0.00130561307457
N           -1.29164141861175        1.14769108038759       -0.03023372098339
C           -2.27044925556878        2.22123936414640       -0.05089226783246
C           -1.83901995765187       -0.13791071297160       -0.04692166021042
O           -3.03619082546172       -0.30644834128049       -0.07228029201571
N           -0.95816007902712       -1.18917525566798       -0.03273060208845
C           -1.45276719166257       -2.55938298639332       -0.05780520091753
H            3.71459779267838        1.25515423835883        1.06542486617962
H            4.00145113473498        1.06751833816815       -0.67559232633865
H            2.73060623344104        2.16815880654164       -0.09080352111679
H            3.46177151818160       -1.57952889823782        0.04621640487617
H           -1.73817014812563        3.16929804111658       -0.02528819423260
H           -2.87877401764547        2.15406269749377       -0.95388979890662
H           -2.93359834319596        2.13598576978439        0.81086995599780
H           -1.09681177931773       -3.08596339580644        0.82533806153502
H           -1.07424017566999       -3.06385671683174       -0.94466192584001
H           -2.53825119522823       -2.52156581952863       -0.07180468128811
H            2.02919292011255       -4.65890370569050       -0.03253936189006
25
 energy: 19.982043774483 xtb: 6.6.1 (8d0f1dd)
C            3.23778959188393        1.22944953942255        0.08638906368143
N            2.26365800579856        0.16616320044265        0.03987452025952
C            2.46464145701963       -1.16439918298927        0.03025359504343
N            1.35010555657735       -1.86927589036261        0.00366513145090
C            0.37520553288801       -0.94546614654686       -0.00510639478722
C            0.89749294828914        0.33958717015693        0.01608653874024
C            0.05834793727121        1.50212254049389       -0.00413563794647
O            0.42595530544965        2.66184910617748       -0.00276043619984
N           -1.29059996158833        1.14882502513304       -0.03049260531158
C           -2.27306243594861        2.22273056472465       -0.05096108388886
C           -1.83792590912134       -0.13585651381679       -0.04672462560735
O           -3.03737651566510       -0.29663716116775       -0.07135592649758
N           -0.95984036785805       -1.19147493403894       -0.03423792726250
C           -1.44894810210864       -2.55567229342650       -0.05769686026649
H            3.71810250766277        1.26108408795261        1.06658734268703
H            4.00231700096783        1.07049526486687       -0.67466576294565
H            2.73638346369361        2.18082403761579       -0.09005335436776
H            3.45890035932136       -1.57620993210408        0.04444520158378
H           -1.73843439959606        3.16949267929576       -0.02602316380797
H           -2.87977099478111        2.15323367436199       -0.95392989474323
H           -2.93403575247814        2.13587486215958        0.81136875237735
H           -1.09702633826620       -3.08699624796975        0.82561168001477
H           -1.07440504207615       -3.06565201797057       -0.94435103335633
H           -2.53547880840478       -2.51720484229489       -0.07158762880430
H            2.03021926604191       -4.84785780137178       -0.03316557785075
25
 energy: 19.937280989150 xtb: 6.6.1 (8d0f1dd)
C            3.23874290884134        1.23341040497109        0.08592578312409
N            2.26208434745327        0.17514063880216        0.03992935944443
C            2.47219255937128       -1.15548298048542        0.03083312641740
N            1.35633128775871       -1.86284260297748        0.00322379176162
C            0.37674874129882       -0.94179185212638       -0.00528111145888
C            0.89732888536523        0.34349047878433        0.01702656903341
C            0.05601474541650        1.50439519364290       -0.00320891407327
O            0.42587724897534        2.66430178216751       -0.00212200057576
N           -1.29098012994832        1.14849911188207       -0.03027168617068
C           -2.27395654731822        2.22279578651777       -0.05088706743007
C           -1.83632489200383       -0.13511631717962       -0.04678787182090
O           -3.03573883983805       -0.29770730180143       -0.07147361514685
N           -0.95719234568087       -1.19372475364190       -0.03497680588652
C           -1.44697296430600       -2.55452185064722       -0.05798938630309
H            3.71942075831982        1.26290905826432        1.06602956521376
H            4.00244856424722        1.07083954542166       -0.67513692159311
H            2.73929561087852        2.18533874980361       -0.09080580738020
H            3.46061558142168       -1.57377580034181        0.04519562572307
H           -1.73810233513627        3.16881729195689       -0.02563998876509
H           -2.87981382066676        2.15328335503446       -0.95408553754629
H           -2.93450819031297        2.13561672396693        0.81136614045504
H           -1.09740881265370       -3.08816085915739        0.82544803988917
H           -1.07454851520820       -3.06691645816826       -0.94475576433635
H           -2.53427113890993       -2.51571431562246       -0.07195152905588
H            2.00493159760784       -4.89405424032228       -0.03257008132448
25
 energy: 19.875974758391 xtb: 6.6.1 (8d0f1dd)
C            3.23979122251195        1.23773920869275        0.08680533414494
N            2.26071980731084        0.18545366479661        0.03957935639394
C            2.48407605520635       -1.14423135599685        0.03073815907024
N            1.37174749984507       -1.85826875302827        0.00232513090717
C            0.38135250097780       -0.94426771412086       -0.00568401705770
C            0.89728331389319        0.34326332046800        0.01732317661274
C            0.05534939989630        1.50399182155889       -0.00386179940166
O            0.42666017648143        2.66393683829876       -0.00292793894040
N           -1.29150600447808        1.14728074672868       -0.03063478073242
C           -2.27430379168702        2.22217740313988       -0.05101576883409
C           -1.83359794793080       -0.13426390734539       -0.04662171456419
O           -3.03257229887568       -0.30176994010903       -0.07084723896247
N           -0.95224307475197       -1.19724728625521       -0.03539078481578
C           -1.44536606607869       -2.55423513163880       -0.05771126539761
H            3.72044904469603        1.26497742131165        1.06698035515166
H            4.00282565812969        1.07270564456757       -0.67424761768585
H            2.74256024860688        2.19073448996756       -0.08975657645835
H            3.46615458878608       -1.56986444225564        0.04397575403356
H           -1.73758982001344        3.16776575235999       -0.02608291456339
H           -2.88008823853784        2.15280474574983       -0.95404929789099
H           -2.93419423889356        2.13539149887182        0.81154266078959
H           -1.09801213985239       -3.08993615927665        0.82594061243489
H           -1.07535648686523       -3.06904895328871       -0.94467624994523
H           -2.53339448690181       -2.51470756370070       -0.07156369908147
H            1.95146938349737       -4.92135256075187       -0.03310496301250
25
 energy: 19.816909324143 xtb: 6.6.1 (8d0f1dd)
C            3.24045044992869        1.23978999783995        0.08606383289330
N            2.26117961433526        0.18925483734930        0.03916207133239
C            2.49030207735908       -1.13896819623989        0.03189153156902
N            1.38460939711648       -1.85851759859739        0.00317117750211
C            0.38543915665287       -0.95062303240401       -0.00540571609517
C            0.89720744102641        0.33983345259349        0.01789095156671
C            0.05674454601628        1.50163952718275       -0.00288764485361
O            0.42705096051804        2.66174926389333       -0.00179546503668
N           -1.29175384129938        1.14626425116414       -0.03027401622246
C           -2.27399832069910        2.22134344288075       -0.05085474183153
C           -1.83187173725631       -0.13416160024554       -0.04675099033870
O           -3.03048173780994       -0.30521119939852       -0.07143430612167
N           -0.94914919625203       -1.19872592870257       -0.03532734169380
C           -1.44506068443277       -2.55512272464222       -0.05817792077871
H            3.72114633687604        1.26676621595957        1.06617551390842
H            4.00299339127816        1.07346701960795       -0.67527874624626
H            2.74377542425120        2.19306692724685       -0.09102911408278
H            3.47104518144325       -1.56706035378113        0.04493850905284
H           -1.73744206158975        3.16710662277006       -0.02542591937771
H           -2.87961372170473        2.15273123429047       -0.95417523470801
H           -2.93452270462590        2.13488963890625        0.81138415355550
H           -1.09821165610716       -3.09095673432261        0.82554275743172
H           -1.07511491296373       -3.06970975202278       -0.94532775814880
H           -2.53297947607961       -2.51479735220720       -0.07226931385184
H            1.91047037899113       -4.91501917037702       -0.03277235722969
25
 energy: 19.775610323658 xtb: 6.6.1 (8d0f1dd)
C            3.24050488360746        1.24027802797255        0.08717904443539
N            2.26240696615055        0.18851889190097        0.03892225698472
C            2.49070327507856       -1.13867199317364        0.03111364369955
N            1.38939268281343       -1.86026406468524        0.00282994044855
C            0.38706383372078       -0.95465347785531       -0.00572267241639
C            0.89709825868390        0.33743351358299        0.01690436500395
C            0.05825218785103        1.49997992885500       -0.00421451073221
O            0.42711658248142        2.66029068522034       -0.00308906330736
N           -1.29163659050513        1.14599838777446       -0.03073407233383
C           -2.27349790754666        2.22096334956898       -0.05104869078812
C           -1.83144182537746       -0.13460551197762       -0.04661597295807
O           -3.03003021257996       -0.30614177665858       -0.07082540140262
N           -0.94867660619233       -1.19833912424450       -0.03498239845096
C           -1.44557095721414       -2.55596244635459       -0.05758997244988
H            3.72067014106295        1.26651542048983        1.06757430648605
H            4.00334156593964        1.07471650203584       -0.67403895956750
H            2.74313980939435        2.19321149354074       -0.08942879797829
H            3.47313927900198       -1.56547558567340        0.04369765022036
H           -1.73733344121936        3.16702919984470       -0.02617674602962
H           -2.87990306179734        2.15239150325460       -0.95402326580844
H           -2.93387071682627        2.13502344036643        0.81154149544555
H           -1.09780242269710       -3.09066348548587        0.82616959759973
H           -1.07535009704043       -3.06975847354519       -0.94472178675753
H           -2.53311120741560       -2.51517997807608       -0.07133923531617
H            1.89760988559817       -4.90360563793341       -0.03434684183234
25
 energy: 19.764863864756 xtb: 6.6.1 (8d0f1dd)
C            3.24057853370281        1.24031012428269        0.08615100997828
N            2.26312586807134        0.18755033177790        0.03902359794620
C            2.48977496083918       -1.13926886805934        0.03201395750615
N            1.38979158140168       -1.86107533595013        0.00394166672649
C            0.38724177311808       -0.95557394615227       -0.00529306808710
C            0.89694304603708        0.33690617316609        0.01733254907574
C            0.05872990097568        1.49961664613846       -0.00312805362148
O            0.42694130560923        2.66004310745386       -0.00188486144056
N           -1.29161757318808        1.14614931904088       -0.03026000036385
C           -2.27341313941296        2.22093093958371       -0.05084916671784
C           -1.83148484356679       -0.13496779090612       -0.04672154058050
O           -3.03015066296629       -0.30592784896990       -0.07149007955759
N           -0.94896936714403       -1.19770916065360       -0.03486229495262
C           -1.44577719549918       -2.55624187138990       -0.05814616894645
H            3.72099974339583        1.26709359190484        1.06636208506251
H            4.00323240456060        1.07429378356044       -0.67525563153296
H            2.74272956915615        2.19278250202880       -0.09094862020300
H            3.47343838950098       -1.56477203609097        0.04495350292190
H           -1.73747867649247        3.16712560355340       -0.02549678300132
H           -2.87948734077779        2.15257938935372       -0.95412675853110
H           -2.93432568326382        2.13482676134655        0.81138620079157
H           -1.09789261391521       -3.09061645512374        0.82554199219267
H           -1.07481013770105       -3.06920856335988       -0.94529411180143
H           -2.53314095519269       -2.51540083413639       -0.07223562435428
H            1.89723541772419       -4.90041677365508       -0.03367988631486
25
 energy: 19.763255114468 xtb: 6.6.1 (8d0f1dd)
C            3.24053219223656        1.24038464394754        0.08710574294359
N            2.26350770303732        0.18708846052812        0.03896064913899
C            2.48918362961960       -1.13955054523715        0.03119321729163
N            1.38951605082060       -1.86127010825774        0.00328071709592
C            0.38719237342801       -0.95552899260375       -0.00571017415609
C            0.89682959253351        0.33697963094281        0.01654023568149
C            0.05887913931906        1.49965551347891       -0.00422664604202
O            0.42688893333560        2.66012453020947       -0.00301611737218
N           -1.29157171478851        1.14632042513957       -0.03068806345452
C           -2.27336334702606        2.22097262865637       -0.05103410285854
C           -1.83150567152239       -0.13530798999623       -0.04663465745345
O           -3.03028158542829       -0.30557166909867       -0.07091137394924
N           -0.94919970726333       -1.19732949862869       -0.03477939173674
C           -1.44586859214363       -2.55634610267491       -0.05756322495785
H            3.72059927338738        1.26648477724323        1.06752607705720
H            4.00348663534136        1.07488302494461       -0.67406791421024
H            2.74245446664039        2.19271314500952       -0.08951833636801
H            3.47347538075062       -1.56429321811325        0.04401657152717
H           -1.73743793582055        3.16717678674763       -0.02613914463879
H           -2.87986917628350        2.15241784705216       -0.95402458023666
H           -2.93389505625709        2.13503062924620        0.81151716480223
H           -1.09752238413349       -3.09024833657454        0.82617321323872
H           -1.07509609412700       -3.06929402727295       -0.94465939641165
H           -2.53319174028605       -2.51543314169818       -0.07129429362375
H            1.89847193960230       -4.90102962424608       -0.03501225911263
