72
 energy: -99.538937642813 xtb: 6.6.1 (8d0f1dd)
N           -1.61187804700321        3.01193247665251        2.20264714358455
C           -1.61338686847492        2.19091232858109        1.25034795862881
C           -2.76435201692720        1.94066632527919        0.33719165305646
C           -3.18245428124828        0.51588153418186        0.57187145291460
C           -4.02678045551125       -0.03833792928085       -0.35571334892552
C           -4.56831550964947       -1.26083366046157       -0.26572568332370
O           -5.03505614416716       -0.23384962422348       -2.41831680308695
C           -6.02220975677495        0.51807327328520       -2.85849791934746
C           -4.27569745005102       -2.13906340260649        0.75037007071544
O           -4.77675542924639       -3.39270038367438        0.79393136724146
C           -4.45430756654472       -4.15393236549184        1.92390152355703
C           -3.41866437952628       -1.59795292025051        1.71306195417233
C           -2.88912905967470       -0.31841113517257        1.62098815601625
C           -2.28411602429924        2.13395584708909       -1.13501678518148
C           -1.37214750345618        1.02175326148031       -1.71907467815957
C           -0.02099281901513        0.94881496199947       -1.09451397457873
N            0.59454527128685       -0.16395377407124       -0.61726672802962
C            1.98054422715517       -0.10941196798102       -0.22725217234403
C            2.94036698971464       -0.56667732063145       -1.34752810845783
C            4.36271444561026       -0.44887598908945       -0.88691598168668
C            5.05789136590589        0.73322643665084       -1.04485086581410
C            6.36280477081274        0.85301297990304       -0.58274471595930
C            6.98608948828834       -0.20785404658606        0.05093791898124
O            8.26068312006481       -0.20880060443013        0.52929711451188
C            9.04228096466970        0.94392896048081        0.34803662998329
C            6.27451641439950       -1.41482607285087        0.23867166041005
O            6.96018482107587       -2.40148889193532        0.87893295637295
C            6.32727982956366       -3.63959266394216        1.07284441594014
C            4.97662666432190       -1.51339956568116       -0.22473958125847
C           -0.04756337833039       -1.44936344660838       -0.68748204030034
C           -4.00775033481596        2.85480437731603        0.58545802356897
C           -4.58426552015741        2.61846538539658        1.97815339195911
C           -3.67866234225715        4.33214713572042        0.40440161121546
H           -4.20611868427103        0.57308553206971       -1.22223494348167
H           -6.68825629554975        1.04286626121705       -2.13731713941369
H           -6.63983698813986       -0.12558802378022       -3.49453871341871
H           -5.57589699672587        1.29423558117766       -3.50336369746673
H           -4.77961008479929       -3.67540397834696        2.85554850807465
H           -4.98776110322118       -5.09368668863316        1.78926565872767
H           -3.37993882158317       -4.36129503278371        1.99257772302762
H           -3.16924397222319       -2.18449754864513        2.57759133011234
H           -2.24679304732927        0.02988505716333        2.41303459481565
H           -3.16733112379884        2.21085422777909       -1.77503789514467
H           -1.75275560324070        3.08641167636437       -1.20207816690978
H           -1.86089191003354        0.04847332765917       -1.64227481311953
H           -1.28184430988156        1.27696484607976       -2.79398257404087
H           -0.75364093648084        1.54662949071619        1.00885482200799
H            0.60559323056108        1.83330983115072       -1.17988736501316
H            2.13973804681956       -0.74325795243754        0.65021531153337
H            2.22056786232648        0.92032671864490        0.05276732314965
H            2.76917279158173        0.06018135422448       -2.22556986218294
H            2.70825797908528       -1.60076557598393       -1.60272277277442
H            4.59226043965059        1.57228533149827       -1.54058002343860
H            6.89011102960992        1.78375166379909       -0.72958157960188
H            8.61334740458037        1.81010096853772        0.86104611153374
H            9.17407175413012        1.17845219678427       -0.71451679076152
H           10.01110672654300        0.71166274188925        0.78697849271844
H            7.06254542884328       -4.27475183496482        1.56461905441136
H            5.44382758084742       -3.54781391907399        1.71500661153373
H            6.03690952872465       -4.09586302838406        0.12101592150240
H            4.41368297424103       -2.42218132408395       -0.08188862644569
H           -0.21910567692769       -1.75412603230489       -1.72469776242752
H           -1.01235657047719       -1.41382247495694       -0.17796667978151
H            0.57530049957170       -2.19930468466474       -0.20246726689550
H           -4.77217278489294        2.57576335403554       -0.15129659585036
H           -3.84078836177195        2.86402616183369        2.72549087707285
H           -4.88043051699410        1.58137641692247        2.10544117300476
H           -5.45851656422183        3.24393201126373        2.13549688451896
H           -2.86195673154085        4.58987047682292        1.06712458320559
H           -3.39450710328558        4.55063971469512       -0.62091899308159
H           -4.54826400483033        4.93590388468566        0.65482804587977
H           -0.71636667313363        3.06591652560203        2.67449251070599
