72
 energy: 120.960031016050 xtb: 6.6.1 (8d0f1dd)
N           -1.72014460871740        1.38848041495997        3.20632278294587
C           -0.92053344667765        1.31477723546885        2.27757925296756
C           -2.63705680309694        1.80132527145395        0.09398569547368
C           -3.40671282968809        0.58568065188852        0.32508855741316
C           -4.15279020342546       -0.02512866315030       -0.68665227654889
C           -4.74201035934046       -1.25684492902022       -0.48000818162026
O           -5.51365705311861       -1.86577277230872       -1.42445914278223
C           -5.77059499182318       -1.17514590903755       -2.61902991402828
C           -4.57970549397312       -1.98457141277293        0.71797834279755
O           -5.07704805566273       -3.26033930464491        0.78672234017864
C           -4.71892350971716       -3.96390576818337        1.94786388611080
C           -3.92709944399412       -1.36434522029083        1.76728544507938
C           -3.40406280598085       -0.09875106014260        1.56982536263222
C           -2.29116170507213        2.14238472077110       -1.33891054954074
C           -1.52205528965271        1.18364331625790       -2.25053011503137
C           -0.04129694245782        0.99982035782819       -2.21083143727559
N            0.56475157569239       -0.01430098750977       -1.55037634791957
C            1.90753292558172        0.17784645216989       -1.07834752868592
C            2.99033416794774       -0.37202205048188       -1.98775542027210
C            4.28250617556251       -0.22890309839662       -1.23946604312734
C            5.00151188265298        0.95092128642700       -1.25962683577974
C            6.19381155915002        1.05514499264006       -0.54743042785010
C            6.70814701530324        0.00094543031747        0.20358042608609
O            7.93118648671592        0.01997653069106        0.87271745950618
C            8.76887926725620        1.15888434605886        0.74642419866630
C            5.93426387403234       -1.19337406965597        0.27194488584523
O            6.49248144695223       -2.20689755579375        1.01512069090576
C            5.78845476545914       -3.40993490518885        1.20251801394692
C            4.74203423446657       -1.27631804924796       -0.44241829403583
C           -0.23675471195722       -1.04805831944627       -0.94383671264198
C           -3.06104756281491        3.14229956567005        0.70054989797001
C           -4.14058048181032        3.19603047309752        1.76568213687711
C           -1.81360273471582        3.95499552349543        1.03462831330361
H           -4.32335922881339        0.50625385644985       -1.60407178447870
H           -6.32203598420855       -0.23543958275086       -2.47848674638317
H           -6.39537296048542       -1.85367762658157       -3.19033258549613
H           -4.85314823890631       -0.95366573148446       -3.17692464257128
H           -5.14493896701344       -3.48332950722190        2.84895304554494
H           -5.12830906347092       -4.96495491365308        1.84567145493028
H           -3.62260681953661       -4.04054420402631        2.00267220603192
H           -3.81189362154242       -1.87421064395516        2.72553116190522
H           -2.93178279245321        0.32253788504038        2.43226091862485
H           -3.24450868320092        2.34478169075869       -1.85360977747824
H           -1.69903445380569        3.05616780953929       -1.38762000766027
H           -2.02924824484857        0.24329286897799       -2.17704627356284
H           -1.74267934638821        1.73462442443272       -3.15525399113489
H            0.11379143602793        1.17292946519113        2.35817663625007
H            0.52060921189843        1.44518904762393       -3.02584342653438
H            1.98901201388166       -0.29685543306358       -0.09870122086705
H            2.14238537040878        1.22247533747020       -0.95271158803369
H            3.02427705312900        0.17409097048180       -2.93475106831489
H            2.73324811616936       -1.40700304424410       -2.17523500039803
H            4.65959248353868        1.78846958259642       -1.85337508459565
H            6.76300896659151        1.97099356574737       -0.60954308118483
H            8.29767928509101        2.04601476810695        1.17807497000630
H            9.02090320038986        1.36691841929676       -0.30047833163936
H            9.70223616509534        0.95710853944670        1.28441995996822
H            6.40341438386166       -4.08645790029755        1.83536455239646
H            4.84195488269643       -3.15880686123463        1.67793400546056
H            5.56095071581208       -3.91705332648261        0.25940161899859
H            4.14949611685521       -2.18075566783935       -0.42111858257997
H           -0.57588295721195       -1.73216670440781       -1.72103703614694
H           -1.12321558917575       -0.61306373349514       -0.50267803430258
H            0.32725520889149       -1.62267019845971       -0.18396210530508
H           -3.49507457139957        3.63644793840701       -0.17312412781607
H           -3.75897641194851        2.71956859487995        2.66479293915773
H           -5.09786745920582        2.68051475343029        1.43626229274529
H           -4.38425737888245        4.25572798343538        1.94156888522911
H           -1.17051087662214        3.36680130804677        1.67106624853853
H           -1.26059997367768        4.12164335371609        0.11103003638865
H           -2.06290926559297        4.89996140098224        1.51623086213234
H           -1.58833057479114        1.37226122865285        4.18022332003465
