72
 energy: 57.875689941405 xtb: 6.6.1 (8d0f1dd)
N           -2.13617620152412        2.11676403534962        2.99926573407232
C           -1.60855424817353        1.63383021841472        1.94859632442743
C           -2.50931450268837        1.80244478437190        0.49475507549456
C           -3.37927034680561        0.56822461032563        0.50097800328250
C           -4.15570657860410        0.06602994720441       -0.54002708710187
C           -4.79085857103385       -1.16065922756727       -0.44797468299498
O           -5.60590851019194       -1.71018252556002       -1.39462916810419
C           -5.96447143190168       -0.94635588146971       -2.51986691262285
C           -4.55902704979285       -1.97369531587117        0.66853375303985
O           -5.06629218314627       -3.23440191896198        0.66339518474628
C           -4.67063997378978       -4.01231938739590        1.75952156021067
C           -3.83516984102690       -1.46655144644244        1.72015699895518
C           -3.33365787514499       -0.19461232580967        1.65571777441490
C           -2.04651853173510        2.11374157518332       -1.01848497436160
C           -1.33455460215098        1.21648860562277       -2.02471189594565
C            0.12587511925745        1.11960164468113       -1.72777922998918
N            0.67779014770518       -0.10397132054436       -1.34762437320059
C            2.04395336275704       -0.03792459381035       -0.92670800052734
C            3.09814428635252       -0.51174075973541       -1.94362607039426
C            4.44096738382708       -0.35245279506538       -1.27805920156300
C            5.14519857277983        0.84169816051454       -1.30299290366935
C            6.33242471574598        0.96770301590891       -0.58379748665566
C            6.87622691070291       -0.08109811503634        0.15937295554036
O            8.12916611700427       -0.05558487341133        0.77698102619371
C            8.92215152054864        1.10046390456812        0.60007912807268
C            6.11667293745520       -1.28117898904647        0.23594956594091
O            6.67884691400149       -2.28221509952867        1.00316793095475
C            5.98409140411716       -3.48986328080062        1.18833539702703
C            4.93725564265691       -1.38995152646377       -0.49425476315539
C           -0.14529902186176       -1.18802962138999       -0.87214740697315
C           -3.36357209104465        3.13982145086929        0.72493081729689
C           -4.41400365098304        3.15374575998621        1.81109764726509
C           -2.35166800670854        4.25295713189974        0.90763694781899
H           -4.30031110235001        0.64963314581824       -1.43113322544278
H           -6.48955881536336       -0.02033971652883       -2.26138636593470
H           -6.64413739042711       -1.57438726458843       -3.09307413456195
H           -5.09875842849825       -0.68701411883618       -3.13315260802992
H           -4.99837286440192       -3.56111341383110        2.71416662707114
H           -5.15011847510506       -4.97503317356860        1.61866360009431
H           -3.57943984192393       -4.14199118231258        1.74660901209758
H           -3.62421421993160       -2.03663026964305        2.60656275106919
H           -2.84986868056561        0.15781686323870        2.53563722677084
H           -2.95976909992069        2.45383734631938       -1.50851940019799
H           -1.34416070545648        2.93736175544500       -0.99562654152047
H           -1.78798842989637        0.24362598454125       -2.01830106791588
H           -1.49006842165430        1.66016735227603       -3.02304893251736
H           -0.71602881744757        1.04877894572380        2.04188447095473
H            0.84914099111666        1.70748970885301       -2.29732891544942
H            2.16169970643240       -0.62393629818814       -0.02183933488431
H            2.28180672272831        0.99486567528817       -0.67718838378575
H            3.04971973826035        0.09082662508208       -2.84717584867724
H            2.89824551771747       -1.54203792884008       -2.23181686878210
H            4.78068643154466        1.67760808431992       -1.88658950600728
H            6.89415402799298        1.88575478343583       -0.63003537976643
H            8.44289832611506        1.97691580731805        1.04927226321347
H            9.09748744943926        1.30078038405322       -0.46330799294700
H            9.89191916032490        0.92103169659259        1.07760515815897
H            6.62817361186107       -4.18348339072699        1.76624978476321
H            5.05854894908088       -3.27974430690930        1.72264339356540
H            5.73378330894089       -3.96138071772487        0.23423687231060
H            4.36106371623091       -2.30280198976421       -0.49029058214110
H           -0.43217269527841       -1.84062986567864       -1.69533589207415
H           -1.05963216232795       -0.80953582011810       -0.40523829928500
H            0.38422425249740       -1.81845492836242       -0.12308248365820
H           -3.92066882728407        3.36008792426212       -0.19298711425614
H           -3.98308406350840        2.84966513206511        2.75133555753458
H           -5.16315639232696        2.36044826268440        1.61831638088196
H           -4.85381336277671        4.15381574934774        1.89991467098716
H           -1.60307295473882        3.90060539981022        1.58688721005271
H           -1.86357678228600        4.46483820916748       -0.03603840672977
H           -2.81706394434926        5.15286023492071        1.29466503748140
H           -1.62297188974280        2.17124422713526        3.86296204682746
