72
 energy: 73.712725164501 xtb: 6.6.1 (8d0f1dd)
N           -0.90960720032438        0.46870373051272        3.55889876792484
C           -0.03193909472784        1.01066034755560        2.91118084297250
C           -2.95380828493893        1.95107908081991       -0.40883647819297
C           -3.47535638797727        0.69787733993471       -0.02687403785413
C           -4.21194524858494       -0.08435723069561       -0.94728985158317
C           -4.70033116392797       -1.32562839425130       -0.62496247155180
O           -5.45395827394188       -2.10401643282986       -1.46014934838774
C           -5.80688678324521       -1.58029454776511       -2.70995468623250
C           -4.43736082216144       -1.88959554526082        0.64258071603255
O           -4.92570163234398       -3.15193861381237        0.85023851762461
C           -4.71760584180778       -3.74020398715029        2.10548123641622
C           -3.72469670335437       -1.14054193984682        1.56445005143486
C           -3.26290486699430        0.12253190649791        1.24640236059089
C           -2.67030522188027        2.23440937623579       -1.81351671096582
C           -1.69602142141053        1.19340662265769       -2.52851828719513
C           -0.31324638650999        1.23530031343336       -2.09835907672345
N            0.24375417883620        0.37062620654938       -1.23856246757784
C            1.58969252058397        0.55550696290327       -0.77717412368678
C            2.62762004473939       -0.14930338864302       -1.66766999587764
C            3.97815266222922       -0.07325499196833       -1.01840952567671
C            4.75193485086680        1.06691969214464       -1.11740068144374
C            5.98714531824028        1.14079490990485       -0.48577939294785
C            6.47201235396192        0.07719326322259        0.25811769254221
O            7.67358197353832        0.04695628284113        0.91266401208162
C            8.52351670391981        1.16759928586119        0.83296906737846
C            5.68121038487366       -1.09319975977995        0.36819357110650
O            6.23453926221227       -2.10087218153504        1.10103757545245
C            5.52813071793854       -3.30798649094913        1.23518426824785
C            4.44966987805768       -1.14540157987129       -0.26269011209441
C           -0.43246607288944       -0.84287203169786       -0.86816253152188
C           -2.71194973418196        3.11396655250811        0.50794108939375
C           -3.68690990184807        3.20657541768121        1.68641217922795
C           -1.26348968253070        3.25290926881682        0.95329345612429
H           -4.45618252802009        0.35569612406588       -1.89707414959118
H           -6.39633068543114       -0.65927920873833       -2.62595446852447
H           -6.41649755812767       -2.35034388607183       -3.17412678703301
H           -4.92615044975561       -1.38668768321967       -3.33472724883071
H           -5.18153550228956       -3.15188085287769        2.90739806291317
H           -5.18424491918295       -4.72490981802589        2.05451521171074
H           -3.64870382574660       -3.86722902039884        2.31028720896734
H           -3.50879010528077       -1.54621082965989        2.54272361344199
H           -2.67488184090581        0.63872164678160        1.98335581379328
H           -3.58310784033982        2.22373531138407       -2.41007773279170
H           -2.20247919131789        3.21371158407000       -1.92718892844237
H           -2.14616617846932        0.21012707380586       -2.41399241028365
H           -1.73622239126171        1.53165425890051       -3.56021430347197
H            0.89707239776886        1.48231729960050        3.21315475362636
H            0.27748137582842        2.08976116720127       -2.38433965345036
H            1.66154037949179        0.15956100162077        0.23762105145915
H            1.82442880931861        1.61781367517388       -0.74960662493329
H            2.64510383487340        0.33339396758207       -2.64698523097442
H            2.32628924524211       -1.18837007361505       -1.79688562529172
H            4.40550328270674        1.90769202097695       -1.70083609016113
H            6.57566723973939        2.03895349912928       -0.59181576873222
H            8.05591828653945        2.06224440551728        1.25680127232457
H            8.82762016160562        1.37344933418418       -0.19904998776824
H            9.40913937064179        0.92060103626575        1.42025579354278
H            6.14687655859206       -3.96079939505925        1.86131591316002
H            4.56839818715324       -3.13641109084237        1.72831391189041
H            5.33893445199481       -3.78015444786235        0.26471802796688
H            3.83720912598662       -2.03169679921122       -0.18862325683498
H           -0.65433266950745       -1.43630567669576       -1.75587154580376
H           -1.37085834162228       -0.62177476396093       -0.36152851155394
H            0.20178606786975       -1.41774216227945       -0.19432048980908
H           -2.89139731631762        3.99357303986445       -0.12526299837219
H           -3.39162641233147        2.55792639183169        2.50511981838819
H           -4.70211014867614        2.93398581672754        1.37722366360250
H           -3.70245521695690        4.23336680826048        2.05113439208237
H           -0.95555055746336        2.39115683672816        1.54412740201158
H           -0.63051434774653        3.30612447367134        0.06873594936258
H           -1.15721307501305        4.16274166201900        1.54323390870313
H           -1.03190674756326        0.31262134794435        4.55605674896846
