72
 energy: 21.342681814943 xtb: 6.6.1 (8d0f1dd)
N           -1.97019332307986        2.69272027291103        2.72407616719626
C           -1.74194309887240        1.96430413090670        1.71543716952087
C           -2.66256411130393        1.92952722598666        0.49870327561537
C           -3.39980863992010        0.62151811979166        0.47049422180512
C           -4.25640617094664        0.16896485999971       -0.53745085373549
C           -4.84792279012790       -1.07822810285477       -0.47617870769148
O           -5.71991620380348       -1.60798190712596       -1.38266666494299
C           -6.17814352821147       -0.78673871698595       -2.43028774003207
C           -4.48769046372503       -1.94306218813616        0.56620566759362
O           -5.03481650095986       -3.18927719774931        0.54496147016592
C           -4.63927428805091       -4.03573280664557        1.59084656161404
C           -3.62150288556578       -1.50247367621144        1.54320638684381
C           -3.11285403384247       -0.22720231291129        1.49996230161276
C           -2.03165478197023        2.17805200048579       -0.93828106973148
C           -1.25814464087305        1.20595015394967       -1.83514932906694
C            0.13924762438927        1.13048833793235       -1.31779351058191
N            0.70619439482018       -0.10196383585038       -0.93325914414778
C            2.07941732725194       -0.12727059137516       -0.52922961131265
C            3.07999254128741       -0.59798739780547       -1.60967346735184
C            4.47941425514462       -0.45779684233705       -1.07965879264538
C            5.18813378784998        0.72625268061775       -1.18291450666817
C            6.42858719505713        0.87722828767859       -0.57844375071915
C            7.01052362745453       -0.16262485433824        0.13277002968874
O            8.27144593178499       -0.13119873678349        0.68746874980990
C            9.02207705727739        1.03877363425344        0.47176791225240
C            6.27311458143630       -1.36331731829960        0.26042082109873
O            6.84824715625632       -2.35200476627260        1.01318586754753
C            6.14347427583901       -3.55318958269455        1.18147609464535
C            5.04719610589122       -1.49798238207376       -0.35859343650005
C           -0.08971744271572       -1.28804125339319       -0.73818293563244
C           -3.65827347154016        3.13221437729049        0.64868250530725
C           -4.54794092261330        2.99226523995624        1.86996056260580
C           -2.83664147456346        4.40233421356720        0.69893096053529
H           -4.46339786557964        0.79490296108370       -1.38716105587134
H           -6.67005426410640        0.11912696023408       -2.06058704799767
H           -6.90477042975786       -1.37854459848292       -2.98550041233947
H           -5.36650770779507       -0.49007534430329       -3.09776949761742
H           -4.89168411583454       -3.59957181676885        2.56882838079182
H           -5.18241301969010       -4.96569359273613        1.42920660839008
H           -3.55972610590267       -4.22999227521445        1.54674966388862
H           -3.32997038793144       -2.12011478979502        2.37177436351731
H           -2.48414066749693        0.11823781311640        2.29436350576194
H           -2.92283882458986        2.51944713237824       -1.49805694897990
H           -1.32623675040598        2.99764856943711       -0.87080889051692
H           -1.73481133659031        0.23819836812190       -1.83330141215242
H           -1.27012680656661        1.52881245751935       -2.89295637125629
H           -0.84330205196387        1.37488617279922        1.48076691058859
H            0.85299702458428        1.87434698810943       -1.66619961731865
H            2.22307725249456       -0.76873616055432        0.34930737251357
H            2.34410834752555        0.89426358137276       -0.26489745324734
H            2.92920534798890        0.02357627581050       -2.49789024333065
H            2.85919716119671       -1.63554680387958       -1.86766783368265
H            4.76226813900588        1.56052748747025       -1.71978741565510
H            6.95102456018755        1.81286796384378       -0.66339795838081
H            8.54271068370366        1.90796275658796        0.93673923171993
H            9.14586594397038        1.23200799087782       -0.59990885449094
H           10.00723205689820        0.87537136619778        0.91191997659698
H            6.81395350874679       -4.23790320281731        1.71830472901390
H            5.23285372692668       -3.38332318121388        1.75878764471412
H            5.87716718507253       -3.99582532794102        0.21634040682031
H            4.47338444104946       -2.40406978246246       -0.27304206556512
H           -0.27936706080271       -1.82700867421335       -1.66598138918058
H           -1.04241645296571       -1.02868091177066       -0.26611249111755
H            0.43499709725537       -1.98738025437793       -0.06617294001857
H           -4.30710560415319        3.20278050515666       -0.23173993859597
H           -3.91591695870241        2.86712356041761        2.72389086771401
H           -5.12782697347474        2.05857206742085        1.83083499348536
H           -5.16383546158640        3.87530509784985        2.04636497773998
H           -2.07040119750265        4.22654094423965        1.41374839439150
H           -2.39001697311768        4.60395487833912       -0.26637239222327
H           -3.43554645559058        5.25273781159011        1.01245451915416
H           -1.24143096930618        2.70031570305777        3.42357847438493
