72
 energy: 84.291222828914 xtb: 6.6.1 (8d0f1dd)
N           -1.15121726033939        0.66390381447602        3.45052020863235
C           -0.25075496945563        1.08437774036380        2.72889242315103
C           -2.86454221900429        1.90135167289990       -0.28240539274585
C           -3.45301378539189        0.66619373716066        0.07039184856096
C           -4.19176244138652       -0.07140339043596       -0.87692288172191
C           -4.71039524967510       -1.30872891511414       -0.58390588212420
O           -5.47191380633919       -2.03709285988704       -1.45137515055530
C           -5.77707670205793       -1.46117067850268       -2.69017848751168
C           -4.47519722277497       -1.92221524882664        0.66430884303464
O           -4.96773765253674       -3.18924880246133        0.83214227560247
C           -4.72472316426905       -3.81142874178993        2.06625947722466
C           -3.78121164034166       -1.20432254782962        1.62447828361633
C           -3.30592043691611        0.06272905384960        1.34210842745134
C           -2.56758678387863        2.20929596930566       -1.68197452466324
C           -1.65787893476318        1.18036330522835       -2.45522996690042
C           -0.22866644454839        1.13253661542436       -2.17150547419516
N            0.34292502086979        0.26354139097345       -1.32752244612305
C            1.68424199761230        0.45104830667528       -0.86432937292436
C            2.73272106782660       -0.21254228431821       -1.76093314937208
C            4.06657500083130       -0.11749087150009       -1.08301446071581
C            4.82466698786689        1.03477696436292       -1.15895697821225
C            6.04786974187408        1.11805151151286       -0.50306826446946
C            6.54233278401675        0.05816194822841        0.24422735702469
O            7.74829662042615        0.04606657705734        0.91082242550940
C            8.59898626759209        1.17231893223689        0.82561896383860
C            5.75621778268487       -1.12034820991402        0.34037704201304
O            6.31151052046688       -2.13046543100116        1.07459012450051
C            5.60078223689736       -3.33361691783186        1.22490961190101
C            4.53491653125742       -1.18231848640107       -0.31521235055183
C           -0.37489506985024       -0.90342386856873       -0.88898044533706
C           -2.80384883762282        3.13126336405281        0.57584632236758
C           -3.81560857114543        3.20710681139141        1.71587951280092
C           -1.38517512939543        3.47472289459878        0.99360763171960
H           -4.41704460727158        0.39903969835709       -1.81570507239914
H           -6.35385503000555       -0.53188327788929       -2.59794152016545
H           -6.38508913166415       -2.20481613507451       -3.19217992118172
H           -4.87446878072231       -1.26237487040130       -3.28160751497695
H           -5.18005845873048       -3.24781234614199        2.89335205230955
H           -5.17107487307539       -4.80416618651592        2.00318748433032
H           -3.64738716156051       -3.92719528216374        2.22955166093437
H           -3.59746827994863       -1.63706396213183        2.60126056893937
H           -2.74841202965763        0.55656663180952        2.11581985791384
H           -3.49478546528835        2.25804160325979       -2.25569734129241
H           -2.06091155130868        3.17166089872747       -1.77115224953810
H           -2.13918912129926        0.22004915558033       -2.33074396231666
H           -1.76550645596461        1.58662094511161       -3.45453770376928
H            0.73111029422028        1.39993853919297        2.96826050983066
H            0.38754437665613        1.90057301851877       -2.60823826498024
H            1.75807764956522        0.03363420685516        0.14207083036353
H            1.91597043312622        1.50935241171445       -0.81567046738047
H            2.75391886527073        0.28958805960289       -2.73115742332815
H            2.44139159750473       -1.25062282871186       -1.90654413907003
H            4.47838699533971        1.87429639322947       -1.74539580647428
H            6.63044394181384        2.02207348357127       -0.59662622998771
H            8.13062226618742        2.06574176816042        1.24960721606502
H            8.89766453343202        1.38004287689321       -0.20793133347847
H            9.49714708590265        0.94457469478692        1.40631194303769
H            6.20234431438364       -3.99131502650733        1.87807719975615
H            4.63382047175474       -3.11569310324490        1.68062940370961
H            5.40703380681902       -3.82405685510359        0.26441897209486
H            3.92640295453912       -2.07338103398182       -0.25691534822949
H           -0.63193676370287       -1.52399082341665       -1.74689552463654
H           -1.29752312101772       -0.60864520717936       -0.40572113906738
H            0.23955535919097       -1.47574594668933       -0.18757215386814
H           -3.07299093935265        3.91088738069455       -0.14499819916988
H           -3.49326641032274        2.60183933666482        2.55784463588132
H           -4.81815623483709        2.86330298455053        1.38971283402903
H           -3.89925847061272        4.25103712181590        2.02966123409973
H           -0.97961466493459        2.66946776949606        1.60127767187808
H           -0.78351482496667        3.55516370600691        0.08991916681128
H           -1.38308872549360        4.40899695518968        1.55198252280223
H           -1.17049138471246        0.60688966778358        4.44563828962870
