72
 energy: 70.866049623940 xtb: 6.6.1 (8d0f1dd)
N           -2.11270790066760        1.96900129934601        3.02549113515491
C           -1.51116447639765        1.57707866601804        1.98039658136742
C           -2.50169654217799        1.79002809622678        0.44695952303080
C           -3.37961930235145        0.56273376994032        0.48768352326084
C           -4.14576179425952        0.04519822807132       -0.55549549761263
C           -4.77846635667959       -1.18199286625127       -0.44511741011535
O           -5.58067669146388       -1.73880123604655       -1.39875078535612
C           -5.91406713821579       -0.98935383298523       -2.54090501915737
C           -4.57327293662846       -1.98030160045152        0.68921709491131
O           -5.07205922208467       -3.24504609325561        0.69166214224519
C           -4.68110397104323       -4.00593609521466        1.80128551356678
C           -3.88007785425640       -1.45171274370926        1.75133124654745
C           -3.37486324613607       -0.18024613987262        1.67045742172667
C           -2.08612316919783        2.11128773549021       -1.07029619831073
C           -1.37211008272030        1.21021501708301       -2.06823898758855
C            0.09891620437387        1.10309860077419       -1.83908184483879
N            0.66189349949683       -0.10334689592391       -1.43807657059124
C            2.02601265725929       -0.00285511069194       -1.01016702201827
C            3.09693719619766       -0.48181162089108       -2.00491616365548
C            4.42216250789313       -0.32091886332708       -1.30656016782698
C            5.12773710742689        0.87167978885003       -1.31716097041536
C            6.30640959588473        0.98974820325584       -0.58261351329598
C            6.83993076549804       -0.06096285820660        0.16610564337843
O            8.08806223396342       -0.03745105962030        0.79835972175958
C            8.89253508596033        1.11437952649235        0.63182489396109
C            6.07617950242764       -1.26029654892369        0.23298501428733
O            6.63691153375674       -2.26413717885533        1.00094559619322
C            5.94404336524469       -3.47297417510513        1.19012708537812
C            4.90192393969965       -1.36017204750334       -0.51096551938275
C           -0.16131428415187       -1.16048416560344       -0.90174894798098
C           -3.29614860591541        3.14260874826313        0.73255685360202
C           -4.36521635715736        3.17281628062727        1.80165408044251
C           -2.23687867364174        4.20844510879606        0.95148705318633
H           -4.28551940741010        0.61785552455901       -1.45079584952278
H           -6.44627560716671       -0.05974487376934       -2.30943778303125
H           -6.58157696839410       -1.62709886644051       -3.11712370658770
H           -5.03569502707875       -0.73838886382858       -3.14080230427919
H           -5.03176065423390       -3.55138192425577        2.74762182667268
H           -5.14386904332401       -4.97682292158547        1.66652309308103
H           -3.58774279221707       -4.12125928207914        1.79921155370379
H           -3.68888902540440       -2.00983329026589        2.65213423331205
H           -2.91942782488700        0.17367375269159        2.56633083824249
H           -3.01709495798277        2.42101831623214       -1.55808356297372
H           -1.41177521547221        2.95983085427955       -1.07503284273363
H           -1.83054154281537        0.24194814563542       -2.05580901292171
H           -1.55258685481467        1.69638446648416       -3.03742374518851
H           -0.60744696519787        1.01824695974094        2.09016631042811
H            0.78947492814270        1.64884959435348       -2.48207436045765
H            2.13606232297841       -0.56787111261832       -0.09285026117204
H            2.25619982413294        1.03380451042527       -0.77079517971450
H            3.07337634673877        0.11012079987655       -2.91558107890645
H            2.90157787437540       -1.51317068105138       -2.28616257282777
H            4.78057939890977        1.70916091530474       -1.90880671513999
H            6.86925023429887        1.90770464892361       -0.62433985017567
H            8.41519598948399        1.99320266398982        1.07728079330464
H            9.08344192471132        1.31679054857807       -0.42862335821154
H            9.85609241036234        0.93006308581407        1.12107550845079
H            6.58247097872242       -4.16477038168922        1.77969416788550
H            5.01461987031901       -3.25304576223332        1.71283000868261
H            5.69787647664595       -3.95358776516196        0.23953465689343
H            4.32578645084918       -2.27426172561333       -0.51477999592016
H           -0.47697755828213       -1.83165188632636       -1.70169802672101
H           -1.06515813148715       -0.75751598443344       -0.43564791921699
H            0.37311979197466       -1.77574281617452       -0.14116685575610
H           -3.82827550845837        3.40652215797394       -0.18678528766115
H           -3.94319207399717        2.82859957659887        2.73603581585548
H           -5.15807451054826        2.43091021537864        1.57072112961480
H           -4.76419322365895        4.19442904234890        1.88433285743690
H           -1.49725931012448        3.81359387804721        1.62150289184367
H           -1.73502026684655        4.42068114633916        0.01384772130226
H           -2.66457634634183        5.11802152566236        1.35907456367778
H           -1.69273641992438        1.99532552110380        3.94097835005162
