72
 energy: -1.457480320471 xtb: 6.6.1 (8d0f1dd)
N           -1.68499585603661        2.84790950269301        2.40187706718656
C           -1.64221400231140        2.12086053859097        1.36872376817686
C           -2.75264599795794        2.03662674158436        0.35108680627363
C           -3.37270131917545        0.66055334454987        0.38017872732593
C           -4.32404799250750        0.23645215978568       -0.54961691339869
C           -4.86831305928310       -1.03339265194398       -0.50168609017182
O           -5.79261156664310       -1.53816772926447       -1.37245346418024
C           -6.31428724256293       -0.67912840017690       -2.35412935306345
C           -4.43662079716633       -1.93404145698899        0.49087633632325
O           -5.00892006157530       -3.17283846537779        0.45865508552417
C           -4.64860012468846       -4.06906654511939        1.47659352534812
C           -3.49616142636183       -1.51299567811504        1.41122164712811
C           -2.97727443107608       -0.22968591927136        1.35368468978616
C           -2.16904158708540        2.28898711990408       -1.07435662437130
C           -1.25995156482983        1.20619715977055       -1.71647041670731
C            0.06067670479205        1.14013036979162       -1.02797754853834
N            0.66797902512716       -0.07682572263894       -0.67270213512346
C            2.04542864283303       -0.09909631046958       -0.28319538599692
C            3.00213323167199       -0.57607718324471       -1.40063271076702
C            4.41946459862559       -0.45189741756485       -0.93034440868031
C            5.13799581491783        0.71880869376740       -1.09322102360709
C            6.42849255915859        0.84435009505462       -0.58695195063829
C            7.03467865659207       -0.19921882671146        0.09497065487163
O            8.30321417302473       -0.18645704187079        0.59536105477358
C            9.06081988954809        0.97630946138551        0.37948934551124
C            6.30649290592275       -1.39555243044773        0.27142875436321
O            6.93308635296560       -2.37696439157133        0.98808959007502
C            6.25227566902913       -3.59076593276412        1.16747953414843
C            5.02347882008931       -1.50135512322821       -0.24006364629653
C           -0.06106603539880       -1.32010463854601       -0.65482576957309
C           -3.83924270051631        3.11085494982191        0.59137602394605
C           -4.54722059817015        2.85520385040766        1.91971166369507
C           -3.19295785861819        4.48292610192456        0.58663328245787
H           -4.60231398897121        0.89469836141211       -1.35496941269237
H           -6.77881120991201        0.20522653586577       -1.90665472659528
H           -7.07138469596948       -1.25349233256733       -2.88697420720774
H           -5.54464440282200       -0.35369013223068       -3.06040633960170
H           -4.87668830625659       -3.65631530488515        2.46680912388939
H           -5.24231072165468       -4.96665080274794        1.29817821241195
H           -3.58358806308992       -4.32423373202335        1.42558321467296
H           -3.15480464350936       -2.16516974682232        2.19907084370254
H           -2.26679262635272        0.08804586981443        2.09793599192280
H           -3.04221847165082        2.46285681448809       -1.73032208180159
H           -1.58222110791493        3.20545309314087       -1.02295086899017
H           -1.76232188349143        0.24458779379964       -1.68858470617986
H           -1.10535993794557        1.43261232243081       -2.78714355770138
H           -0.75557018258154        1.55445887256980        0.98516934770310
H            0.73833871876180        1.96491779016529       -1.21332432216364
H            2.20579442114874       -0.73260552228794        0.60402055461839
H            2.31813842679071        0.91959568363568       -0.01856527891977
H            2.82490986620301        0.03999361482904       -2.28960212802442
H            2.76166672621610       -1.61170389908323       -1.64913318416992
H            4.69438927417874        1.55333961113399       -1.61677416503343
H            6.94144381891604        1.77864398619554       -0.73803724265096
H            8.60493079320944        1.84857908829111        0.86101218093180
H            9.17542345977039        1.17841925107633       -0.69133847116177
H           10.04056865517528        0.78196689646540        0.81261411789020
H            6.95692027807695       -4.24849227298672        1.68033462180754
H            5.35611246546484       -3.45754619331838        1.78006203541220
H            5.97005029711472       -4.04278329413588        0.20990413054111
H            4.45377418249683       -2.40586386105427       -0.10750149363977
H           -0.23553075818759       -1.70692075399408       -1.66032874703135
H           -1.02865700581754       -1.17004777346942       -0.16721755325298
H            0.50485627913360       -2.07211661826251       -0.09178029886114
H           -4.56648852788809        3.08139793771078       -0.23385619219055
H           -3.75468782827670        2.87077479821945        2.66234293560173
H           -5.01307004258823        1.86786337160157        1.94185592840040
H           -5.27612798682891        3.63143468846148        2.15338651798374
H           -2.41559141729500        4.47246953294193        1.32056628547211
H           -2.78733675728674        4.71354466887981       -0.39140121800857
H           -3.90916936786029        5.25343139268328        0.86600508521790
H           -0.86045855297758        2.77008968295664        2.99390330045625
