72
 energy: 110.457237986579 xtb: 6.6.1 (8d0f1dd)
N           -1.49733788464417        1.09603573702741        3.30791908224385
C           -0.63502491427922        1.18774534614690        2.44197778987835
C           -2.73764571955992        1.83596880327079       -0.07730466524388
C           -3.42477880207762        0.61807525702950        0.21810176950644
C           -4.16532210237029       -0.04910451744721       -0.76793967899119
C           -4.72711351622279       -1.28123717596018       -0.52206155109734
O           -5.49654517297847       -1.93293472455444       -1.43814035024851
C           -5.74974202828796       -1.27885037343770       -2.65177918821037
C           -4.53677446589553       -1.96634707656137        0.69633895371824
O           -5.03426639103709       -3.23979088911212        0.80661123197916
C           -4.72769771776180       -3.91366273497674        2.00146921841532
C           -3.87005210326057       -1.30027186517542        1.71021918518314
C           -3.36995393939553       -0.03193962533061        1.47853828446609
C           -2.40332044962478        2.17048930353122       -1.48022402227476
C           -1.57882397862941        1.17397073910755       -2.34271588095127
C           -0.11272488469411        0.98726491248978       -2.26747207754560
N            0.48344362053903        0.09422129206508       -1.46462190661978
C            1.82093626648850        0.28973297416757       -0.99583146295203
C            2.88917582194220       -0.30792698384984       -1.89915901938156
C            4.19736836745083       -0.18407741862832       -1.17806298116041
C            4.93189579915898        0.98512282044330       -1.21988086675990
C            6.13645530885878        1.08155100839514       -0.52897096840171
C            6.64396362338960        0.02625197526241        0.22186876102201
O            7.85927262740236        0.03742313741515        0.89644584751628
C            8.70630313332891        1.17112885391539        0.79065556451869
C            5.86489149903303       -1.16288551912223        0.29914295019954
O            6.42242050991178       -2.17626831952211        1.03606729812191
C            5.71325518168372       -3.37822576459954        1.20981760373926
C            4.66024257666100       -1.23807271541205       -0.39206496019642
C           -0.28736700743237       -0.99339016926008       -0.92412328860809
C           -2.95488711905724        3.13943264916946        0.65881234909367
C           -4.01289493180614        3.20114218613518        1.74815368083717
C           -1.62603985457365        3.77611910866563        1.03102390196840
H           -4.36083403591060        0.46270318776465       -1.69066861050142
H           -6.30830337066868       -0.33843361252245       -2.54062403614988
H           -6.36174454933575       -1.97869115686084       -3.20544408705711
H           -4.82620470225657       -1.06772600229661       -3.20421608256145
H           -5.16873321152800       -3.39333254304545        2.86925752461135
H           -5.14481349205260       -4.91661744864274        1.91758278619483
H           -3.63657954580918       -4.00256236513632        2.09901067678253
H           -3.73391171902031       -1.77419976623970        2.68108086100622
H           -2.86254154907177        0.42339606240243        2.30571352198316
H           -3.34769973868580        2.30743117146631       -2.02069358435950
H           -1.84507238820562        3.10651709907343       -1.54094842810532
H           -2.10460511791259        0.24582779703768       -2.22975888033327
H           -1.77068409312395        1.67439693979839       -3.28087751074266
H            0.40118556686124        1.25819436981370        2.59126358190921
H            0.48873068318966        1.57960116401676       -2.93588433705935
H            1.89892865860811       -0.16011286075884       -0.00344952456983
H            2.05049304879049        1.34150888547494       -0.90873985873209
H            2.91650519325735        0.22089996991684       -2.85588623655752
H            2.61574916913150       -1.34419037522880       -2.06883066940141
H            4.58778221957552        1.82294279833481       -1.81137198839017
H            6.71085154904232        1.99306288900831       -0.60409766005566
H            8.23621614016838        2.06133868494338        1.21712899126165
H            8.98480912115352        1.37991042824955       -0.24922794433428
H            9.62433082284683        0.96284596609954        1.35060991889432
H            6.31881194980758       -4.04627721999776        1.85758497351138
H            4.75694414379762       -3.12755192702100        1.66628647475610
H            5.49916449849386       -3.88561692162229        0.26308720751066
H            4.06066943333411       -2.13728448663240       -0.35696867726555
H           -0.59884791491530       -1.65269034453809       -1.73262316171893
H           -1.18344825192779       -0.59986666878832       -0.47830060435224
H            0.30109910680297       -1.56077047687965       -0.18783846001837
H           -3.33163715073846        3.75369669756248       -0.16410936979621
H           -3.65256209499365        2.67149051792127        2.62612341144127
H           -4.99630213734966        2.75996288416889        1.41308546652833
H           -4.19078018841141        4.25966525460412        1.98033507032539
H           -1.07035311501147        3.09123266754834        1.65569401885467
H           -1.05556299711699        3.90678435790396        0.11245735858027
H           -1.77866869244860        4.72469438739894        1.54234521400259
H           -1.40595754704254        1.07073555561258        4.28418759333214
