72
 energy: 5.072449569448 xtb: 6.6.1 (8d0f1dd)
N           -1.79697641514809        2.81997523671387        2.51105577762022
C           -1.69039133761262        2.08590628023373        1.48541225838968
C           -2.73599614327857        2.00876340412581        0.39883308788949
C           -3.39283676257096        0.65432041383885        0.40975949071349
C           -4.31194553649330        0.21695240585449       -0.54530336918448
C           -4.86894831228154       -1.04652993258486       -0.49128275108711
O           -5.77287757025360       -1.56117769365762       -1.37697860053970
C           -6.27136049984027       -0.71280658505341       -2.38293209286737
C           -4.45465958145463       -1.93522042845574        0.51606073896405
O           -5.01767828308921       -3.17701562339919        0.48738790893756
C           -4.64250301510256       -4.05613610762588        1.51426328653195
C           -3.53498985494524       -1.50692557250061        1.45319140537181
C           -3.02167763492107       -0.22480943987578        1.39945050921311
C           -2.13404026766351        2.26574103317509       -1.02949228431426
C           -1.25867193678910        1.21125018849922       -1.75375190375876
C            0.08978855794942        1.13964418949795       -1.12096219922205
N            0.68399520918725       -0.08582548052760       -0.75639020962165
C            2.06174631099950       -0.11725267062857       -0.36219351032993
C            3.03373063315645       -0.58931544675194       -1.46801561409044
C            4.44530497790363       -0.45779462669242       -0.97904200256278
C            5.16309491569524        0.71632397786953       -1.12164744269413
C            6.43875844987879        0.85098924736533       -0.58317000357413
C            7.03696187253906       -0.18940222474610        0.10973941776865
O            8.30108554994754       -0.16701862400539        0.63069666035722
C            9.05180827934472        1.00080714508222        0.41026202642387
C            6.30582752066523       -1.38733743845811        0.26831376161962
O            6.90931454684788       -2.37080359180487        1.00281944895692
C            6.21708828217794       -3.57894381140883        1.17348644073365
C            5.04252324451877       -1.50435510341718       -0.28124396627961
C           -0.07037362552071       -1.31338582340098       -0.67961896260815
C           -3.79130332276169        3.12169076186693        0.60754285696120
C           -4.56089157847943        2.89629500441604        1.90472951687788
C           -3.07957388001210        4.46019734330547        0.61489009268557
H           -4.56347397175454        0.86278887783516       -1.36783185321211
H           -6.74550031116346        0.17969438161291       -1.96128954082898
H           -7.01773290081822       -1.28986650709426       -2.92839279484447
H           -5.48507959830095       -0.39685926575812       -3.07358369723564
H           -4.87659923177911       -3.63245059393774        2.49998441592480
H           -5.21940761836944       -4.96592499398158        1.34274425622402
H           -3.57213652981479       -4.29042974853885        1.46408270556843
H           -3.20463663684701       -2.14910515208294        2.25264987326091
H           -2.33192242376153        0.10035799385469        2.15841939102821
H           -3.02735508987156        2.50006427283418       -1.64993309559774
H           -1.51127202652549        3.15626551505257       -0.96826199772715
H           -1.74899391373861        0.24528577856611       -1.73249171956652
H           -1.15878460240019        1.46215509563442       -2.82655109444587
H           -0.79205488705065        1.49934463641220        1.15882009970733
H            0.78168634983615        1.94064247090049       -1.36170515424029
H            2.21917654314662       -0.75700211141484        0.52010011686643
H            2.33721617809922        0.89911015542981       -0.09516198768391
H            2.86178703779268        0.02862757156009       -2.35535755312044
H            2.80143241893006       -1.62595672993092       -1.71906848153905
H            4.72663475366315        1.55210942969374       -1.64786829924496
H            6.94726623698957        1.78992548461647       -0.71290281928357
H            8.58528161812458        1.87107316176234        0.88526380568976
H            9.16595031009171        1.19757215603710       -0.66169175599945
H           10.03497607486082        0.82214181450173        0.84324049986536
H            6.90891976122307       -4.24788096682414        1.69310422587659
H            5.31496126163311       -3.43300889445473        1.77284333491781
H            5.94123434825504       -4.02298860715780        0.21070418619445
H            4.47729504877127       -2.41246209830784       -0.16133776319087
H           -0.24808089535134       -1.74841489945873       -1.66280614673155
H           -1.03414927769931       -1.12485263958472       -0.19771537498796
H            0.47407970681787       -2.05323634278967       -0.07490350642380
H           -4.48996007586333        3.12622308318850       -0.23755514792550
H           -3.80197738718820        2.86325098699842        2.67162969274736
H           -5.07620669829869        1.92731094981559        1.91533555022143
H           -5.25089445387298        3.71199924425855        2.12777062751657
H           -2.30634036668892        4.38455396884157        1.34350192879576
H           -2.65639438316445        4.67425239900925       -0.35961350031591
H           -3.74860893589682        5.26902899878017        0.90133783779332
H           -0.99549077408633        2.76026235858756        3.13480806593660
