72
 energy: 87.186542820110 xtb: 6.6.1 (8d0f1dd)
N           -2.02827411622394        1.82027652552268        3.06011890854898
C           -1.37613503810724        1.51961756416502        2.03715332091711
C           -2.51620991752432        1.78599089073959        0.37232185119618
C           -3.38329775126772        0.56170247622229        0.46522078320651
C           -4.14217856801959        0.02636421691283       -0.57601743101409
C           -4.76812487258132       -1.20254410759943       -0.44438606974079
O           -5.55812723104212       -1.76844773988737       -1.40301666315267
C           -5.86778175172564       -1.03372219319617       -2.56114207319000
C           -4.58412149708093       -1.98506713191618        0.70661316077966
O           -5.07633629564778       -3.25351913224504        0.71900304114375
C           -4.69168808300074       -3.99846709682385        1.84178840616637
C           -3.91472382438015       -1.43408330653756        1.77446792369966
C           -3.40315394751778       -0.16379298789271        1.67345157891909
C           -2.13112781107819        2.11293958368441       -1.12977612021605
C           -1.41160734080033        1.20337317331985       -2.11269897743013
C            0.06756371791088        1.08391457597940       -1.94782641331277
N            0.64490448883762       -0.10032549250625       -1.51248155492727
C            2.00497862980678        0.03508775060956       -1.07438802483416
C            3.09266291621002       -0.45326173955613       -2.04387449340554
C            4.39962355751972       -0.29498907729748       -1.31553331295846
C            5.10424301457541        0.89559148191145       -1.31366337706719
C            6.28043970569731        1.00877884662021       -0.57565815251791
C            6.80606112608357       -0.04320370595598        0.17469558117627
O            8.04844029792229       -0.02084245435723        0.81951809170386
C            8.86232278928900        1.12752788072202        0.66275299702063
C            6.03967775713149       -1.24186383097976        0.23482200261292
O            6.59820989207623       -2.24818371762891        1.00162952713932
C            5.90443955795897       -3.45657540207388        1.19255948745510
C            4.86602793761299       -1.33597724887134       -0.51152789822902
C           -0.17736293888569       -1.13302697264760       -0.92641508441346
C           -3.23101675379960        3.14598101707883        0.73401227128225
C           -4.30814734173834        3.18429528672322        1.79408502582686
C           -2.12505820427825        4.16096698313486        0.98753696398246
H           -4.28457196805978        0.58676324770802       -1.47860712853561
H           -6.40642449774563       -0.10102920389914       -2.35564126512981
H           -6.52341052502786       -1.68147489595547       -3.13910060071235
H           -4.97764249941388       -0.79090268411764       -3.14839671858820
H           -5.06472930022641       -3.54009331188287        2.77875076319329
H           -5.13842397675958       -4.97733418156083        1.71375029580805
H           -3.59666300063523       -4.10071107591471        1.85188884965432
H           -3.74287982384570       -1.98064492533673        2.68899278749737
H           -2.96496881335371        0.19542453483367        2.57915193191376
H           -3.07529315706044        2.39490075725973       -1.61856982928635
H           -1.48187665220523        2.98266759027428       -1.15447905522475
H           -1.87909509857262        0.24101012847705       -2.09210028979098
H           -1.61632857041304        1.73382263911600       -3.04872962755514
H           -0.42278958900955        1.05670646799232        2.09874442447150
H            0.71613128809753        1.58553818064639       -2.66365696910347
H            2.10785559545246       -0.50812810913757       -0.14314411560193
H            2.22848405823332        1.07597272441480       -0.85054053259024
H            3.09163650566467        0.12583058397744       -2.96392420025048
H            2.89813379405332       -1.48785527722401       -2.30484135603282
H            4.77136904422041        1.73387225098158       -1.91135280404575
H            6.84255027740488        1.92783671216481       -0.61869047857941
H            8.38668025506074        2.00860556594254        1.10448995283220
H            9.06891888081910        1.33187604257938       -0.39457579351372
H            9.81887876543372        0.93847313912995        1.16420320800641
H            6.53694083717453       -4.14556669219293        1.79377856190618
H            4.97092907450424       -3.22710347374863        1.70328489088641
H            5.66258172984983       -3.94568764062762        0.24499150113240
H            4.28694903703905       -2.24907933698720       -0.51038133173156
H           -0.51543890564212       -1.82061528933439       -1.70571449973158
H           -1.07233736922811       -0.71000562495523       -0.46247173280747
H            0.36226275665862       -1.73438230751566       -0.15725427041914
H           -3.74068966303904        3.45967622827370       -0.18104690944682
H           -3.89888819888291        2.80339241677276        2.72189413145308
H           -5.14535566851759        2.49751707784262        1.52837634224354
H           -4.67441194752062        4.22160988875157        1.88138191336886
H           -1.39813120536444        3.72185145857527        1.64780103857680
H           -1.60961779208415        4.37195086351873        0.05540816695515
H           -2.51321713146816        5.07947310581085        1.41674576736305
H           -1.73472725478628        1.82541027355684        4.01889870479854
