72
 energy: 92.126214035190 xtb: 6.6.1 (8d0f1dd)
N           -1.27036334854214        0.82005948972506        3.40899776168985
C           -0.37933264009803        1.11678220075979        2.62592343348738
C           -2.82158674859191        1.87713721270922       -0.21761050739072
C           -3.44376565221334        0.64987235964719        0.11885576070588
C           -4.18269916515838       -0.06437153717267       -0.84173105823689
C           -4.71563281929502       -1.29986584158182       -0.56335914499804
O           -5.47983044057262       -2.00311010601894       -1.44698422888382
C           -5.76331004874249       -1.40125206350176       -2.67884812055883
C           -4.49540556295193       -1.93764444778144        0.67515108067547
O           -4.98953652238048       -3.20713877743716        0.82339626614269
C           -4.72763191272875       -3.84690998765713        2.04544653961265
C           -3.81097950978779       -1.23617012021380        1.65351152203053
C           -3.32789128276404        0.03168785991370        1.38785073464194
C           -2.51338680812377        2.19668309848228       -1.61615151019246
C           -1.63347445446509        1.17690028162342       -2.41932186808844
C           -0.18863790271390        1.08023421962169       -2.21009018398134
N            0.39052673358867        0.20829603114835       -1.37338978020817
C            1.73001592866889        0.39803270064894       -0.90846906412468
C            2.78500038427676       -0.24425818100761       -1.80721699674550
C            4.11031122396564       -0.13957627243818       -1.11478399645530
C            4.86059873885025        1.01844667771324       -1.17924923758976
C            6.07764231032642        1.10631046178580       -0.51138101798653
C            6.57695218047603        0.04829972622791        0.23735394499211
O            7.78586308091144        0.04461088387278        0.90810802110444
C            8.63698745385272        1.17336433967024        0.81868211337703
C            5.79310630234116       -1.13406794485960        0.32657533195834
O            6.34957497018197       -2.14539127088493        1.06098285202658
C            5.63855318712372       -3.34768299266942        1.21776613918058
C            4.57707290409675       -1.20074675433392       -0.34092146377968
C           -0.34558311678971       -0.93343614963484       -0.90059086783773
C           -2.85355097982301        3.13485929954958        0.60489364856006
C           -3.88065780173353        3.20544560184036        1.72811719843672
C           -1.45999051382614        3.57851074484230        1.00858141926898
H           -4.39817315527706        0.42052835540813       -1.77482926928054
H           -6.33361101542474       -0.46784809529152       -2.58172833431581
H           -6.37137482820715       -2.13082982389204       -3.19910429988406
H           -4.85125600362270       -1.19970032891489       -3.25476787271759
H           -5.17786791077385       -3.29675769692397        2.88584427034739
H           -5.16426893445468       -4.84320451135809        1.97571551722768
H           -3.64611701677234       -3.95649924224568        2.18758253482585
H           -3.64315603813057       -1.68265385722251        2.62870283357454
H           -2.78691761500289        0.51406165957063        2.17970567090471
H           -3.44800640182465        2.27461639437013       -2.17723873891473
H           -1.98908516706932        3.15111961517690       -1.69489759001179
H           -2.13336658839460        0.23064242320383       -2.29313501290412
H           -1.77231530932746        1.61493707312637       -3.39912623546972
H            0.63206884349093        1.34318696637020        2.83450196550594
H            0.42992986515865        1.79861337659046       -2.71993690167534
H            1.80521608895145       -0.03012661705251        0.09348492098784
H            1.96074075878717        1.45433135528880       -0.84821358157924
H            2.80830811000928        0.26666993542401       -2.77311221199972
H            2.49905918544236       -1.28171323051962       -1.96056117451419
H            4.51484336789221        1.85729160601636       -1.76746735321296
H            6.65740644163988        2.01294075810151       -0.59882378622606
H            8.16830122836835        2.06605759769957        1.24294049496103
H            8.93207038103528        1.38177767165142       -0.21599320254786
H            9.54182910104423        0.95478357089825        1.39457886933518
H            6.23865076991736       -4.00819429296289        1.87334966842790
H            4.67212241801172       -3.11263606290132        1.66215060900586
H            5.43948389365701       -3.84539137291754        0.26264273488061
H            3.97119318182158       -2.09447462707971       -0.29063105017553
H           -0.62160730937150       -1.56699187616552       -1.74270188955552
H           -1.25949117375648       -0.60443449184404       -0.42871868857545
H            0.26162759580791       -1.50370739205955       -0.18753605602640
H           -3.16127991193722        3.86196652720714       -0.15528166936268
H           -3.54457149648954        2.62486226157808        2.58298784912964
H           -4.87703361417491        2.82861438642476        1.39761490373535
H           -3.99691727026408        4.25561515885552        2.01474610465054
H           -1.00508844545811        2.80864663396245        1.62223274057921
H           -0.86952328828780        3.67474624534595        0.09904668470399
H           -1.51077678373437        4.51957257982972        1.55175905581859
H           -1.24708156710128        0.76019697787286        4.39559197644396
