72
 energy: -6.041894233135 xtb: 6.6.1 (8d0f1dd)
N           -1.57359132626136        2.84131316767667        2.30382072085166
C           -1.59240024479996        2.13984243412983        1.25557724687245
C           -2.75352825762359        2.05505335212139        0.29545013110253
C           -3.34535561751090        0.66029972127178        0.34934445344215
C           -4.32088280458127        0.24907876043113       -0.56148334700394
C           -4.86028979737166       -1.02390414362934       -0.51684734195178
O           -5.80969631739386       -1.51358369080057       -1.36841805967331
C           -6.35662023537151       -0.64456357107983       -2.32470448999400
C           -4.41758121165607       -1.93544658603605        0.46435134732052
O           -5.00062258623268       -3.16993412734283        0.43025290982676
C           -4.65583817920961       -4.08324979731679        1.43941278761475
C           -3.45813229074287       -1.52317584267318        1.36926833924420
C           -2.93133051821850       -0.24016397403024        1.30913367857773
C           -2.19012910718422        2.29483144773086       -1.13303482264461
C           -1.26139023189689        1.19138289311591       -1.68740549342875
C            0.02969665606297        1.13352780171388       -0.94480787695815
N            0.64959190365701       -0.06643513670302       -0.59099200721743
C            2.02569108844716       -0.07464812550348       -0.20793194708785
C            2.96837984120003       -0.56048642699512       -1.33431246448374
C            4.38978356685545       -0.44326872269054       -0.88210366639068
C            5.10679388000315        0.72439186527373       -1.06623478954562
C            6.40768014411793        0.84301133239302       -0.59282316276905
C            7.01830134051596       -0.20491721760256        0.07609342998067
O            8.29423979866468       -0.20267207577960        0.55759297598388
C            9.06641698728816        0.95117307474199        0.34835882499025
C            6.29313858927772       -1.39901414392366        0.27672110208210
O            6.95025945691902       -2.38192796859588        0.95941902163724
C            6.28628732009008       -3.60248417384291        1.15950209531699
C            4.99709078764002       -1.49680785611338       -0.19973925025952
C           -0.05221010085753       -1.32030648828100       -0.62985915246263
C           -3.87061463809302        3.09444698102741        0.57963482525884
C           -4.52016281910084        2.81358305564391        1.93238433205731
C           -3.30103943328803        4.50183524935879        0.56593782690910
H           -4.63269781021618        0.92493849648852       -1.33984483700362
H           -6.81260264526915        0.23151685593187       -1.85289927353747
H           -7.12419018850752       -1.21785424381122       -2.84338090374383
H           -5.60527059875809       -0.31027352483300       -3.04756594375188
H           -4.87832213449528       -3.68298988548991        2.43476961549729
H           -5.26605622022504       -4.96769791631909        1.25371975244643
H           -3.59654050258086       -4.35932793372240        1.38790273121829
H           -3.10981109038048       -2.18476960828410        2.14610610514198
H           -2.20181104554269        0.06698346113289        2.04058038215501
H           -3.04323760886194        2.42144225022685       -1.81315435459414
H           -1.62620566794819        3.22678173169544       -1.11719769593155
H           -1.78395797064631        0.23950572630426       -1.65070573610392
H           -1.05302097336050        1.39978981663609       -2.74984469404323
H           -0.71700671701570        1.60871500857166        0.80943075827187
H            0.68896459381943        1.98059118975083       -1.07200949462069
H            2.17801325696121       -0.70155072233525        0.68377498074670
H            2.29878751719676        0.94635666441303        0.05382553931225
H            2.78904685818177        0.05191295711534       -2.22513001368006
H            2.72136492851949       -1.59563044874852       -1.57854704573691
H            4.65801211170093        1.55717608561934       -1.58724581881321
H            6.93284872386577        1.76823909981431       -0.76348509550081
H            8.62579332794098        1.82693758688870        0.83741737857155
H            9.18581365143746        1.15959414619857       -0.72066294578366
H           10.04157181920385        0.73828576579432        0.78354408952589
H            7.00612550851980       -4.24569552413721        1.66636896603030
H            5.39806090974268       -3.48201301420964        1.78785299446752
H            5.99615457006497       -4.06647538076520        0.21012502591734
H            4.42768239075298       -2.40005297462207       -0.05436852471194
H           -0.22475355689307       -1.66436248071037       -1.65474196717379
H           -1.02208818566996       -1.21267918178384       -0.13701214348974
H            0.53709112096559       -2.07478365109703       -0.10634151002983
H           -4.63081991833582        3.02530328268586       -0.21603195051096
H           -3.74278505473069        2.88933234754498        2.69007904991572
H           -4.94336035394580        1.81045114481104        1.96258976491372
H           -5.29915633510756        3.54018105660165        2.15535711787155
H           -2.51465232524517        4.57084364097947        1.29714694525403
H           -2.91788178674406        4.75631564345488       -0.41628291174853
H           -4.06991672269843        5.22116202284669        0.83882489498153
H           -0.72139156880621        2.76764521131359        2.85674062254070
