25
 energy: 68.798659076402 xtb: 6.6.1 (8d0f1dd)
C            3.73056968453842        0.85044442507010        0.13441845097778
N            2.67188620898344       -0.09639311963825        0.08310653114713
C            2.91256032621412       -1.39752096135833       -0.16730535663067
N            1.74987298077428       -2.08044871014138       -0.07796829680502
C            0.68240585995025       -1.19285457377773        0.01597738374504
C            1.28357663150059        0.11850242809576        0.12682915899698
C            0.57248521768606        1.25108015424360        0.15029572751036
O            0.35140008941554        2.32675236482990        0.61060357907117
N           -2.65943540622690        1.37379927863242       -0.28584032907207
C           -3.15521988023408        2.68973824112970       -0.21577028642204
C           -3.19350617572749        0.35764561840265        0.03807957684997
O           -3.61643248606946       -0.70781653332384        0.19015673229822
N           -0.56927905087533       -1.39629684395232        0.01325652755964
C           -1.07451732480426       -2.72954275059988       -0.02067338126320
H            3.68103017104080        1.50580338606381        0.99320253955086
H            4.63981721661725        0.27986440574700        0.31315970529686
H            3.88192257068118        1.36680660193416       -0.80805169528699
H            3.87950240695493       -1.82517607905452       -0.22808189529031
H           -2.33200100869271        3.38351907607551       -0.06221162091342
H           -3.67136345190336        2.92232418028695       -1.14693232572982
H           -3.86485785769272        2.76342544787025        0.60447056577245
H           -0.41717547155109       -3.38102948552164        0.55493865240195
H           -1.11799799953130       -3.11118502348187       -1.04796298801777
H           -2.07519580110280       -2.77271441889646        0.41941179670701
H            1.69552267670023       -3.06967654097325       -0.17884099776034
