25
 energy: 61.207355747689 xtb: 6.6.1 (8d0f1dd)
C            3.78896122197116        0.87750133339216        0.10154223900869
N            2.79741616388148       -0.15035840833784        0.07506777266586
C            3.05470587914611       -1.46859414934175       -0.09878484631100
N            1.88398688056999       -2.16367755455963       -0.03928601714341
C            0.80058821332886       -1.30595127432441        0.02636997390589
C            1.39418279495489        0.03133742212004        0.11908655726410
C            0.73289489047568        1.16869092179928        0.18373567350034
O            0.22609546850467        2.22626578709532        0.35786812192668
N           -3.09125004720640        1.52512326174193       -0.31035553438025
C           -3.29226440415910        2.91196749022049       -0.19311261454945
C           -3.48186900670754        0.44623584282145       -0.01803333922060
O           -3.61767879981117       -0.67931186375579        0.22098303657138
N           -0.44557367716068       -1.52885356781636        0.03450255184066
C           -1.03756668832714       -2.82747973839401       -0.02433941282296
H            3.83510258543730        1.32677453772105        1.09942367592991
H            4.76651963893252        0.44525239342022       -0.08496896723230
H            3.59356478644421        1.63757921849597       -0.66482652766790
H            4.03762532843199       -1.87678009088253       -0.16040755313596
H           -2.31839280138211        3.40118274697527       -0.08839939465683
H           -3.79261881607356        3.26148381878826       -1.10081010253679
H           -3.93963557437469        3.11700012555346        0.66378452704729
H           -0.54907202769832       -3.54827091225509        0.64021972257251
H           -1.02572680502079       -3.21080544072800       -1.05273696761817
H           -2.07697502661473       -2.70441377893132        0.28540864654970
H            1.80882447519817       -3.15434286326701       -0.16527862187193
