25
 energy: 61.997481744154 xtb: 6.6.1 (8d0f1dd)
C            3.78319870054110        0.87086599787868        0.09556856272946
N            2.77651024212233       -0.14014146772417        0.08429392570550
C            3.02746844037464       -1.45470469096784       -0.12392824117836
N            1.85827065755471       -2.14442296592164       -0.03509293696903
C            0.77554192375641       -1.28178550984649        0.02623216199583
C            1.37440192308729        0.04994278756557        0.13304178728289
C            0.70110221074185        1.17966746301691        0.19775397445196
O            0.25805725955859        2.26280304101552        0.39043705060094
N           -3.01614633927534        1.48919881833774       -0.29018518178654
C           -3.28652473774060        2.86476001711004       -0.20412434576348
C           -3.44792865479048        0.43362938342006        0.03521569886448
O           -3.63467477444135       -0.70210772253979        0.17327697686098
N           -0.47119607599443       -1.50642243882689        0.01650303405622
C           -1.04356067828721       -2.81022576585752       -0.02088385452024
H            3.79348919455681        1.36053227871871        1.07531133822346
H            4.76074219652724        0.40422744278014        0.00386445848393
H            3.65979678146268        1.58536184433666       -0.72435209498676
H            4.00586046559006       -1.87004727879502       -0.18365302654313
H           -2.33401849632417        3.38570225335585       -0.07978491130184
H           -3.78564420886737        3.18653380833037       -1.12278249265413
H           -3.94812693880759        3.04442961126643        0.64643794462622
H           -0.51009952042761       -3.51347488710093        0.62935955501119
H           -1.04760203242403       -3.19204693770977       -1.04940755128435
H           -2.07667282879302       -2.71479426600018        0.32715009418528
H            1.78561735842978       -3.13195965964069       -0.17789431887591
