  25
        -42.09438152
 C          3.0723817179        1.5391724448        0.0111699559
 N          2.2918897319        0.3835681509       -0.0088150532
 C          2.5777149001       -2.1903915967       -0.0126496689
 N          1.2928057843       -2.1424470069       -0.0061663101
 C          0.4427163882       -1.0411776764       -0.0018800503
 C          1.0076824146        0.2500971569        0.0009539964
 C          0.0557113949        1.4166870829        0.0043551672
 O          0.4434665413        2.5613489742        0.0100633506
 N         -1.2723489863        1.0858777059       -0.0054310381
 C         -2.2558980513        2.1636408869       -0.0090357082
 C         -1.8116689284       -0.1871174667       -0.0016944039
 O         -2.9957510949       -0.3811402409       -0.0014242636
 N         -0.8970269863       -1.2505878817        0.0024239739
 C         -1.4628452712       -2.5879653019        0.0128388585
 H          3.6316448552        1.5867511657        0.9517185526
 H          3.8023847283        1.4990865075       -0.8026186303
 H          2.4560046744        2.4412271978       -0.0840894725
 H          3.1953918312       -1.2953379215       -0.0106625590
 H         -1.7305691206        3.1149799498       -0.0056479482
 H         -2.8836886148        2.0797297437       -0.8958734441
 H         -2.8924124564        2.0784273050        0.8714663701
 H         -1.1706654561       -3.1316507340        0.9129334250
 H         -1.1849549074       -3.1406404417       -0.8864002603
 H         -2.5483334695       -2.4744706714        0.0203661530
 H          0.7975901410       -3.0432465163       -0.0067072578
