25
 energy: -42.094177929492 gnorm: 0.009740968387 xtb: 6.6.1 (8d0f1dd)
C            3.16142417801618        1.39424637819414        0.01175473991414
N            2.35055924372891        0.25943993053669        0.03088318378644
C            2.55578027024900       -2.31681943964442        0.25624295603112
N            1.27367508121924       -2.23324234987791        0.19657984826965
C            0.46052975846267       -1.11181944128379        0.06787851890548
C            1.06312168214297        0.16212936489013        0.03188617466844
C            0.14462441744099        1.35492486803000       -0.00440393319493
O            0.56446626520354        2.48758443321382        0.02712214020579
N           -1.19049922055218        1.06155130639382       -0.07529875717499
C           -2.14202908012322        2.16663440505108       -0.11983706741915
C           -1.76315659095169       -0.19623711737692       -0.10873121332366
O           -2.94826941637259       -0.35894743212898       -0.20287916745958
N           -0.88165476850864       -1.28404107941969       -0.01749067371011
C           -1.48379953598299       -2.60526181878153       -0.03767030505992
H            3.92398058066748        1.27974478368808       -0.76437639172429
H            2.57493914187723        2.30269851290999       -0.16668529044674
H            3.68009169878236        1.49439654150959        0.97120547754064
H            3.20001835908913       -1.44150198749769        0.20849553941234
H           -1.58909372937313        3.10218132025074       -0.13176780269671
H           -2.76021257101963        2.07712333727552       -1.01264677511913
H           -2.79208551982008        2.12386514853552        0.75408186747018
H           -1.33495501916741       -3.12216868563785        0.91254532158804
H           -1.10096442079653       -3.19796971793158       -0.87007318509021
H           -2.55664358542487       -2.46467315190205       -0.18175436195503
H            0.75058429531498       -3.11559956739358        0.25611077448279
