  25
        -42.13171510
 C          3.2432350383        1.1191567313        0.0165769944
 N          2.2538739771        0.0790509418        0.0012164481
 C          2.4748625228       -1.2561009052       -0.0045493903
 N          1.3684384989       -1.9636155549       -0.0065996168
 C          0.3622195191       -1.0624772808       -0.0004585782
 C          0.9018445245        0.2349432603        0.0044065636
 C          0.0692677233        1.4124177908       -0.0018221391
 O          0.4586000992        2.5582990977       -0.0119246561
 N         -1.2854404376        1.0797264662        0.0014927020
 C         -2.2474634962        2.1673060219       -0.0023893342
 C         -1.8417063119       -0.1919594843        0.0045310469
 O         -3.0339296023       -0.3529247388        0.0094144995
 N         -0.9651129760       -1.2844342566        0.0008381208
 C         -1.5072107722       -2.6222545615        0.0001644302
 H          3.7543557155        1.1406786753        0.9817310987
 H          3.9844089108        0.9430983478       -0.7637372230
 H          2.7564646681        2.0801882567       -0.1469525177
 H          3.4563831153       -1.6890387622       -0.0069252090
 H         -1.7034746382        3.1100519570        0.0041369369
 H         -2.8805779377        2.1002976600       -0.8890974765
 H         -2.8934404421        2.0944107602        0.8744906853
 H         -1.1442528287       -3.1678318329        0.8719338022
 H         -1.1876806013       -3.1517492855       -0.8981111020
 H         -2.5930737816       -2.5508150559        0.0253643852
 H          2.9290391697       -4.5117858593       -0.1667066532
