72
 energy: -99.243494080984 gnorm: 0.003661981965 xtb: 6.6.1 (8d0f1dd)
N           -1.91519544196225        2.87015829935695        2.21789189093379
C           -1.86296404468329        2.15352250868393        1.19691335910807
C           -3.00668667594785        1.93662847256267        0.24477718113325
C           -3.47260564008829        0.49123407492509        0.32975585271215
C           -4.39553848043400        0.00536487071184       -0.59876780172307
C           -4.86863602377354       -1.29474100824531       -0.53743130199765
O           -5.76900632362661       -1.83667965405763       -1.38300759981469
C           -6.38739751478118       -1.01897125061331       -2.34860120506784
C           -4.39543527565482       -2.16448025526370        0.48233676822608
O           -4.90112327712527       -3.41374952653904        0.46031661169176
C           -4.54526963680691       -4.31487431514431        1.48265992811628
C           -3.48018977945268       -1.67591057599733        1.40081147478107
C           -3.02863216591272       -0.36385575841894        1.32641370478186
C           -2.44346692229243        2.23329387866543       -1.17021825299048
C           -1.52594685005264        1.13444684172433       -1.73666206855486
C           -0.19794834132623        1.07208441104256       -1.08760182496060
N            0.41709634469037       -0.03837663374966       -0.70551209336018
C            1.79384513999284       -0.00945212807741       -0.27504376501307
C            2.74061906067807       -0.61845696143419       -1.32643609904813
C            4.15976594645167       -0.36675625689058       -0.90634618511206
C            4.77028295735197        0.84962047897652       -1.05902643311195
C            6.01091209381258        1.16331733730146       -0.68962839359631
C            6.83835004971697        0.24039356607487       -0.07231605038986
O            8.10009566976312        0.39049092454253        0.35114279312564
C            8.75352751276334        1.62118926226079        0.13249296744303
C            6.25368297387699       -1.05116430160532        0.14078811879041
O            7.07756330193903       -1.92642977916973        0.75850270933891
C            6.62264544224569       -3.23003999708407        1.03544082544446
C            4.95483598679860       -1.32687543019132       -0.26571305432332
C           -0.22296353173371       -1.33101546116979       -0.75822540636472
C           -4.22946439833694        2.85836464432329        0.53171338421114
C           -4.87389264347704        2.53012489303196        1.87644612559941
C           -3.88993240195201        4.34491225424140        0.47272508395968
H           -4.76112097070190        0.66015081326796       -1.37218491100785
H           -6.90244463210404       -0.17192426036943       -1.88564088077393
H           -7.11675452870474       -1.65547733630660       -2.84565366713864
H           -5.66744115652615       -0.65200211534689       -3.08740335698475
H           -4.82954833087694       -3.93504532469383        2.46840753582425
H           -5.10023730127343       -5.22728243272467        1.27380036374694
H           -3.47255683093306       -4.53317537109221        1.47027023240125
H           -3.11879836654298       -2.30624455369870        2.19701521587933
H           -2.34195646758893       -0.01095591413142        2.08022295100858
H           -3.27775457162390        2.36168685326951       -1.85894005913326
H           -1.89459528718708        3.17526300649764       -1.13906312105516
H           -2.03775456234156        0.17463634904109       -1.69710832762197
H           -1.35789806081836        1.38123970346178       -2.79311519093839
H           -0.94715766867141        1.63137772698136        0.85687346119603
H            0.38070251376423        1.98363187484455       -1.04818484782426
H            1.89110994797188       -0.55843145634644        0.66652521925314
H            2.09662016015640        1.02517929321470       -0.10173156147870
H            2.56118353852303       -0.12567027945348       -2.28465980669774
H            2.55330362045368       -1.68609512365543       -1.43957538076140
H            6.61707020852589        3.40040365487133       -1.13513020645611
H            6.37032073424137        2.33501422493639       -0.92707843030120
H            8.25595842238595        2.43604241397311        0.66574394976783
H            8.80421697232195        1.85983454235593       -0.93348961000264
H            9.76042785758953        1.49318465677962        0.52471399918282
H            7.45238767287222       -3.72810773551578        1.53361903219747
H            5.75531358041743       -3.21906559364611        1.70354828521755
H            6.37395588194851       -3.77317323497238        0.11836645125270
H            4.54041580875667       -2.30999100358084       -0.10433172273636
H           -0.38791564633826       -1.64743856632753       -1.79027362686976
H           -1.18411574704966       -1.30388091273440       -0.23936834915409
H            0.41335746454017       -2.06365128336684       -0.26862033246214
H           -4.96519320461984        2.64872495651296       -0.25317511519712
H           -4.18074905045029        2.74425600170380        2.68353067314287
H           -5.16520067416870        1.48386820480319        1.92883742083295
H           -5.76316629414770        3.13996393514656        2.01218334019585
H           -3.15039234388224        4.59316524328546        1.22769789999102
H           -3.51780898034428        4.63903217748770       -0.50505166394076
H           -4.78804506930427        4.92286920647261        0.67442764477451
H           -1.07215015191232        2.96890975679279        2.77467009130152
