  25
        -42.18492740
 C          2.9549446526        1.3086111976       -0.0268041539
 N          2.1015403778        0.2739180937       -0.0195465594
 C          2.4666759290       -1.0360708558       -0.0513940661
 N          1.3492976060       -1.8241547259       -0.0452383712
 C          0.2649582370       -1.0343498048       -0.0105186406
 C          0.6996083262        0.3081013036       -0.0030459442
 C         -0.2414964248        1.3180935605        0.0064461077
 O          2.5759909970        2.5668795112        0.1892451177
 N         -1.5573306912        0.9544806930       -0.0356836100
 C         -2.5964700341        1.9620309717       -0.1126537278
 C         -2.0228276475       -0.3570269915       -0.0150040495
 O         -3.1944469395       -0.6141106353       -0.0269476535
 N         -1.0489390621       -1.3665596860        0.0218683943
 C         -1.4733248087       -2.7468822357        0.1231214314
 H          4.0078318085        1.0904596023        0.0522450739
 H          2.0296656659        2.9857936237       -0.4862692521
 H         -0.0242051501        2.3683004233        0.0727412335
 H          3.4704203780       -1.3954794950       -0.0493808225
 H         -2.1609462436        2.9537209041       -0.0436910899
 H         -3.1354864233        1.8601753023       -1.0555684969
 H         -3.3144295255        1.8146820496        0.6940013649
 H         -1.1167745292       -3.1837923113        1.0568488263
 H         -1.1050312194       -3.3256467270       -0.7237074114
 H         -2.5621731709       -2.7579282934        0.1162779869
 H          1.3712298563       -2.8316134216       -0.0467486445
