25
 energy: -42.489045217870 xtb: 6.6.1 (8d0f1dd)
C            3.22143494413542        1.44037879369690        0.15515715936277
N            2.49023198715029        0.18589956792843       -0.02583185084135
C            2.86980474564195       -1.09539761417607        0.07842548731948
N            1.77579974462890       -1.91585771857166        0.05364168855443
C            0.62538185889752       -1.16418707177736       -0.07890976184483
C            1.11847469954633        0.15547676503165       -0.15152206177230
C            0.25549369485435        1.29317754486454       -0.18584374496267
O            0.58308767022077        2.47462370047685       -0.24784278508646
N           -1.05162532425171        0.90369531488386       -0.10228991537819
C           -2.05767255436963        1.95365143990294       -0.04757341088365
C           -1.53399159350474       -0.40890027791289       -0.06339354529265
O           -2.75122334021836       -0.40197538033455        0.01676494789479
N           -0.67374000909521       -1.49837328409446       -0.08051537600316
C           -2.77699139064902       -2.95821745101865       -0.11060973988123
H            4.03783173580913        1.35017336220798        0.87544499450759
H            3.67790922163889        1.80296429494424       -0.77385389525918
H            2.51152853168615        2.20320692107803        0.50982950352827
H            3.86702787281759       -1.48378438724262        0.13636888194414
H           -1.49585268887180        2.88632399104593       -0.04124892591184
H           -2.71014185623633        1.87517757415046       -0.91367835581840
H           -2.65990181237464        1.85067918918296        0.85519582126250
H           -2.56986322093551       -3.35624568101889        0.84684666276342
H           -2.51522796783781       -3.46406248580673       -0.99775105262194
H           -3.21525747394461       -2.00412796176104       -0.17546804755157
H            1.79989078967876       -2.92017488164804        0.14324003084213
