  25
        -42.08515749
 C          3.7131960109       -1.0515342822        0.0070725016
 N          0.4192686898        2.6027997390       -0.0645110700
 C          2.8092552986       -2.1961875184        0.0316325659
 N          1.4859626769       -2.1244534310        0.0582606653
 C          0.6792326730       -1.0098665743        0.0216691609
 C          1.1993278556        0.2645757723        0.0117781152
 C          0.2694718914        1.2850796118       -0.0182439661
 O         -0.8099470846        3.2686294444       -0.0312207815
 N         -1.0787267589        1.0234464831        0.0240265884
 C         -1.8189016248        2.2714476243        0.0224171552
 C         -1.6317502427       -0.2364100703        0.0060590715
 O         -2.8184725444       -0.4210130101        0.0026043787
 N         -0.6896296695       -1.2646398000       -0.0102064050
 C         -1.2329523039       -2.6115920609       -0.0541261274
 H          3.9751329916       -0.7562069265        1.0273020519
 H          4.6390667681       -1.3040746430       -0.5040734610
 H          3.2129203860       -0.1859445491       -0.4395502395
 H          3.2188554092       -3.1958928698        0.0308492734
 H          1.2489875197        3.1836391656       -0.0673148188
 H         -2.4764927704        2.3474980711       -0.8556036828
 H         -2.4171265759        2.3873894396        0.9375870942
 H         -0.9878830117       -3.1685878396        0.8526490123
 H         -0.8951616607       -3.1438533497       -0.9452243352
 H         -2.3182917965       -2.5144369990       -0.1057441658
 H          0.9850282077       -3.0080042409        0.0814381529
