  25
        -42.11418914
 C          2.9226114971        1.2732894234        0.1577985505
 N          2.0528646225        0.1290379738        0.1363733473
 C          2.4327156849       -1.1395771943        0.2163188822
 N          1.3432450983       -1.9230358800        0.1490789757
 C          0.2390919325       -1.1146546345        0.0229149590
 C          0.6865750227        0.1897304413        0.0267132341
 C          0.0245308059        1.5464188174       -0.1775469757
 O          0.4601710388        2.2320396421       -1.1034913788
 N         -0.8926607971        1.8281065728        0.7078117516
 C         -1.5068239819        3.1085035605        0.7535044593
 C         -2.1003664797       -0.9228492275       -0.1436224655
 O         -3.2371513478       -0.6905661957       -0.2236176973
 N         -1.0433257087       -1.6573660415       -0.1212654602
 C         -1.1664173899       -3.1188450249       -0.2959522405
 H          2.8380639287        1.7912189464        1.1146381984
 H          3.9513086231        0.9573024416        0.0048983304
 H          2.6201398714        1.9651165918       -0.6314980428
 H          3.4412111828       -1.4889006083        0.3139798545
 H         -0.8047496506        3.9018934605        1.0628511269
 H         -1.9076282522        3.3930807655       -0.2260977608
 H         -2.3194512854        3.0606106287        1.4781603113
 H         -0.8566120699       -3.6352339938        0.6132726088
 H         -0.5722873105       -3.4424966426       -1.1510235452
 H         -2.2094257514       -3.3610884725       -0.4892403847
 H          1.3545460351       -2.9316263753        0.1835812021
