25
 energy: -42.570068183348 xtb: 6.6.1 (8d0f1dd)
C            3.41052897671137        1.17710925882235       -0.04639075702776
N            2.35582403323472        0.14427596755604       -0.03165149280602
C            2.59175832901237       -1.23050544984632        0.06609687210493
N            1.38919731564214       -1.90641600934318        0.13599842831070
C            0.38079347710262       -1.02454160670140        0.04423147913046
C            0.92865689147946        0.26390677429459       -0.00713879682203
C            0.07193956455254        1.38972928735552        0.03633445121148
O            0.38885706414981        2.57475730893486        0.10767354447999
N           -1.32355948864866        1.02472336775531       -0.01570621268744
C           -2.29213624973237        2.11020168496155       -0.05738454190632
C           -1.86317654545734       -0.22051498092468       -0.08139865803232
O           -3.05684269896950       -0.42419900871477       -0.17978649799460
N           -0.96298206168619       -1.29752877665067       -0.01702520608534
C           -1.50911711345076       -2.63989669447401       -0.09955048136694
H            4.19023437956605        0.82674100044022        0.62780463965690
H            4.09939398382775        1.52021186881992       -0.93652933295615
H            2.91444317645533        2.07276499449935        0.32961355586962
H            3.51644080916449       -1.67524039482821        0.35485548978930
H           -1.73593701394076        3.04423419241715       -0.04851381017088
H           -2.89914366947792        2.03556027393850       -0.96104596198934
H           -2.95661883248740        2.05727133144557        0.80606937957493
H           -1.28202873384439       -3.22151361445064        0.79581132214870
H           -1.14285597275883       -3.16722016130228       -0.98310572719479
H           -2.59413354861712       -2.53977580440760       -0.18159702073163
H            1.30296250087642       -2.91010669252674        0.17351653399830
