25
 energy: 0.000000000000 xtb: 6.6.1 (8d0f1dd)
C            3.23720132972391        1.16630909158653        0.08434468864950
N            2.29877796055224        0.07527476373246        0.03981602671198
C            2.58028186251803       -1.21425391179017        0.03006175752192
N            1.43813944744728       -1.93419254010258        0.00098261751768
C            0.39035684826767       -1.05887462812143       -0.00790371763344
C            0.93510047688824        0.21347817468824        0.01709077332874
C            0.09450143016486        1.40504290868848       -0.00410946993748
O            0.49712746915594        2.54126690785742       -0.00342325656480
N           -1.25076628431515        1.06271869620815       -0.03085477937476
C           -2.21907191394203        2.15522079838987       -0.05001256521996
C           -1.81739470187490       -0.20012724136556       -0.04692818139228
O           -2.99983858926755       -0.37846413507442       -0.07008877579474
N           -0.92618577614240       -1.30210203518959       -0.03682761236648
C           -1.46982251276835       -2.64643077634382       -0.06029819901142
H            3.71247229913541        1.21471443890471        1.06488839270555
H            4.00791460421487        1.03430799217987       -0.67357688121503
H            2.69909982127087        2.09770098766290       -0.09130154035862
H            3.56654087521359       -1.63682977417947        0.04233139674524
H           -1.67107945562430        3.09322822573871       -0.02552706696334
H           -2.82428927394145        2.09428605349656       -0.95318074103337
H           -2.87644002486466        2.07745706351925        0.81450059976605
H           -1.17061985538665       -3.19584861009707        0.83242224714061
H           -1.14560246782873       -3.17511580834413       -0.95688266944647
H           -2.55549768731684       -2.55659960601237       -0.07459039105944
H            1.38130842369251       -2.94313824728853       -0.01389874052104
25
 energy: -6.400106226138 xtb: 6.6.1 (8d0f1dd)
C            3.25407952158045        1.17233179915103        0.07644945402552
N            2.31070367069182        0.10205212483856        0.03114476713070
C            2.60117014055493       -1.24287202915542        0.03829210208390
N            1.41799136720541       -1.93912498286664        0.01052397477120
C            0.39838277623966       -1.05915613703452       -0.00140189483971
C            0.92243983447356        0.22729843048361        0.01978593638651
C            0.11347175518687        1.38641563987635        0.00070639802922
O            0.48826962509150        2.56235358293354        0.00417836257363
N           -1.27096605438804        1.04899161013456       -0.02992101471196
C           -2.22517844954526        2.14642730319337       -0.05098662807871
C           -1.81910356212394       -0.19728075919679       -0.04840308993614
O           -3.01787217052875       -0.38541623690218       -0.07659722683399
N           -0.93995319386091       -1.30023054962880       -0.03533608352436
C           -1.47574812218398       -2.64181613720304       -0.06319563166112
H            3.76274787210660        1.19396119898609        1.04172983390386
H            4.02440080404634        1.07394733290331       -0.69512881166432
H            2.70362528760642        2.10180336115999       -0.05554694203201
H            3.57466667753470       -1.66200166456279        0.06476055965976
H           -1.66741902320475        3.08037716722231       -0.02698971426625
H           -2.83162937035560        2.09121085560984       -0.95517970766751
H           -2.88409622060049        2.07669386742605        0.81413244276215
H           -1.17803986662181       -3.19765235360185        0.82881222066144
H           -1.14636816502692       -3.17374607709279       -0.95919412909053
H           -2.56153918638956       -2.55345693499071       -0.08178334920851
H            1.36231698973854       -2.94335009095163       -0.00281266710582
25
 energy: -6.251704234793 xtb: 6.6.1 (8d0f1dd)
C            3.26770059039802        1.17270338650757        0.06743782963315
N            2.31781117422869        0.10260029170365        0.02667829164481
C            2.60166168339040       -1.24725781035422        0.04430106694549
N            1.41433901348338       -1.93950842520516        0.02029146654472
C            0.39723524604240       -1.05714889934861        0.00431786120193
C            0.92503484985981        0.22923337508670        0.02264967360330
C            0.11171928351072        1.38565993748058        0.00561140493438
O            0.48153103327121        2.56348370901489        0.01319954766789
N           -1.27464669729917        1.04588989369821       -0.02863958462359
C           -2.23023506917285        2.14223071217067       -0.05198836487094
C           -1.82372212636746       -0.19940860986407       -0.04983989879246
O           -3.02278582886376       -0.38760272808479       -0.08246450704402
N           -0.94231239254066       -1.30012501385139       -0.03403092744593
C           -1.48007419199967       -2.64156021214921       -0.06625081620097
H            3.80642357977109        1.16973810605667        1.01521412005495
H            4.03710698113378        1.11157262853189       -0.71411274920421
H            2.71030071469780        2.10339949462801       -0.02084351010656
H            3.57178820713238       -1.67525152697269        0.08691304525437
H           -1.67010356343850        3.07436403888948       -0.02880182753172
H           -2.83731547113200        2.08686433215607       -0.95630574013094
H           -2.89059133323362        2.07537150748450        0.81263609751802
H           -1.18770787884272       -3.20017751978316        0.82563064048711
H           -1.14872070431142       -3.17299694013550       -0.96203802587587
H           -2.56625651624244       -2.55238893872343       -0.08944431400581
H            1.35116985356180       -2.94367259588476        0.00996070240317
25
 energy: -5.840312220885 xtb: 6.6.1 (8d0f1dd)
C            3.28118350220940        1.17326812515312        0.05897152756560
N            2.32422120731036        0.10384221712700        0.02212172126794
C            2.60143876767849       -1.25047122393018        0.05139610391567
N            1.41075104438668       -1.93902754944857        0.03043592289217
C            0.39590153114289       -1.05494726453506        0.00971009107205
C            0.92715326717440        0.23140790148144        0.02494337722559
C            0.10929633744526        1.38431675922359        0.01027148744690
O            0.47399387181576        2.56347168082341        0.02267103100991
N           -1.27870556275858        1.04274282931807       -0.02743872789333
C           -2.23543327995317        2.13818288895151       -0.05310338732570
C           -1.82825264501074       -0.20166573710719       -0.05153748000341
O           -3.02743526587573       -0.39016608518260       -0.08858256406212
N           -0.94467521512074       -1.30007694845903       -0.03287840518881
C           -1.48417004858067       -2.64136873412749       -0.06943593644317
H            3.84984491861213        1.14286910750775        0.98818386812822
H            4.04766258593768        1.14911828711440       -0.73327780593151
H            2.71825682020818        2.10458305536403        0.01556929068116
H            3.56814329822438       -1.68599554015632        0.11026077399266
H           -1.67347497554177        3.06883820132444       -0.03112251925397
H           -2.84294002787462        2.08207224103048       -0.95753030459935
H           -2.89703898880904        2.07414788010151        0.81108017532090
H           -1.19721220578498       -3.20265975212006        0.82242078423875
H           -1.15098152209305       -3.17217249279328       -0.96511721861711
H           -2.57062474146856       -2.55125711764761       -0.09727330345354
H            1.34120673596158       -2.94311112196591        0.02351298209846
25
 energy: -5.195694548853 xtb: 6.6.1 (8d0f1dd)
C            3.29454496440190        1.17402231162705        0.05013638440019
N            2.33032432930722        0.10526864952256        0.01743975578235
C            2.60082988130905       -1.25325320359649        0.06018452449856
N            1.40708852814326       -1.93813837412982        0.04160514563834
C            0.39449342761049       -1.05251208691800        0.01538724138218
C            0.92908682598827        0.23391572393298        0.02719875514321
C            0.10663461108884        1.38284145971314        0.01479323555032
O            0.46558236541354        2.56339898266485        0.03221930205566
N           -1.28292869484466        1.03957428957954       -0.02638630352746
C           -2.24071323537276        2.13416658938609       -0.05421820158822
C           -1.83258625433428       -0.20399482574984       -0.05382211812086
O           -3.03170940525238       -0.39309049128174       -0.09588609677904
N           -0.94697221785160       -1.30002312124092       -0.03172629705168
C           -1.48817613566988       -2.64110357646036       -0.07305986230583
H            3.89269034944973        1.11508238792573        0.95959944952735
H            4.05654528662009        1.18694232378287       -0.75289619967909
H            2.72728833917377        2.10501452074589        0.05150157313118
H            3.56378549028271       -1.69567729505532        0.13459677639179
H           -1.67747769999511        3.06360985249638       -0.03332873866120
H           -2.84857977199468        2.07735609582586       -0.95867325704402
H           -2.90334519889708        2.07268958145547        0.80958342510674
H           -1.20690422970939       -3.20504913525943        0.81889287699865
H           -1.15298326403103       -3.17116960835670       -0.96864775996071
H           -2.57484011968647       -2.54978468968583       -0.10580649986609
H            1.33155790978020       -2.94210453190805        0.03822819823809
25
 energy: -4.347602388430 xtb: 6.6.1 (8d0f1dd)
C            3.30831944285724        1.17482867310763        0.04103205115135
N            2.33625778087476        0.10710390668055        0.01201724360632
C            2.59999376439882       -1.25517448926248        0.06974445164230
N            1.40353036041649       -1.93690345314064        0.05280504019002
C            0.39312109787398       -1.04981988829521        0.02033516186423
C            0.93097355338373        0.23673224663579        0.02677004593734
C            0.10381388963275        1.38148288105660        0.01851379556258
O            0.45687277997064        2.56341781950266        0.04134658001592
N           -1.28725588881664        1.03654213420972       -0.02551777873670
C           -2.24615931254281        2.13034213407549       -0.05501314194861
C           -1.83680630483185       -0.20626796012338       -0.05663489416382
O           -3.03573031343133       -0.39627330131091       -0.10440585497086
N           -0.94916663450462       -1.29983165879349       -0.03058547719548
C           -1.49188924979348       -2.64077238817224       -0.07673554477886
H            3.93467577415301        1.08646337685202        0.92981264909556
H            4.06445965185435        1.22533922064088       -0.77271835296609
H            2.73928797745214        2.10499664731318        0.08605633515020
H            3.55918947563869       -1.70359499933045        0.15995214639379
H           -1.68226568593707        3.05904618637825       -0.03535266193044
H           -2.85470609942542        2.07256095177323       -0.95909967697431
H           -2.90950284823819        2.07122143959683        0.80857413017396
H           -1.21640214613890       -3.20742477894733        0.81532254548953
H           -1.15410752063728       -3.16998402995087       -0.97213671191100
H           -2.57872752355707       -2.54842614054858       -0.11448777740365
H            1.32241910383077       -2.94073306723706        0.05334188639484
25
 energy: -3.318853773071 xtb: 6.6.1 (8d0f1dd)
C            3.32292380219297        1.17563410136718        0.03158308978151
N            2.34187719587315        0.10995082363362        0.00627298410746
C            2.59902700751079       -1.25538721973345        0.07970440138172
N            1.40045269814692       -1.93504316355429        0.06409571260637
C            0.39188240115198       -1.04681229572213        0.02485713506079
C            0.93262177289911        0.24019147669334        0.02459862711431
C            0.10087557736954        1.38076652122749        0.02207062877925
O            0.44827976120543        2.56387165056198        0.05031724070786
N           -1.29165904166718        1.03385853608092       -0.02457261276180
C           -2.25180942725597        2.12679291154491       -0.05534541773231
C           -1.84078698597777       -0.20839018837443       -0.05973134874977
O           -3.03937970893319       -0.39963179183972       -0.11365832809565
N           -0.95117994790642       -1.29949387523146       -0.02936846010340
C           -1.49532847096974       -2.64034028938709       -0.08046372276542
H            3.97610998554506        1.05722971181049        0.89833264194634
H            4.07173876427140        1.26364559465334       -0.79274453039423
H            2.75717084523893        2.10548243336207        0.12027225322091
H            3.55463463070053       -1.70915837608854        0.18549458374525
H           -1.68797564260381        3.05527438868669       -0.03682728893759
H           -2.86089850986915        2.06772276017578       -0.95906003869586
H           -2.91575392214757        2.06952741910045        0.80803334040376
H           -1.22580790617330       -3.20973827830923        0.81170644562619
H           -1.15482601315883       -3.16856120032568       -0.97569582549115
H           -2.58225566329328       -2.54694748213489       -0.12326741463183
H            1.31482595539090       -2.93885349867016        0.06886057511084
25
 energy: -2.125108864065 xtb: 6.6.1 (8d0f1dd)
C            3.33827816696426        1.17619461144760        0.02188350844765
N            2.34724267600069        0.11325319047078        0.00083232270580
C            2.59764213581630       -1.25472471115471        0.09085512466283
N            1.39766686520149       -1.93293967179705        0.07562482697031
C            0.39063473548047       -1.04386575544157        0.02916521310299
C            0.93398813942932        0.24351136418869        0.02150578066411
C            0.09780291267375        1.38056790164269        0.02585629928362
O            0.43969922906293        2.56461705212943        0.05924370166394
N           -1.29615355867844        1.03153167921271       -0.02345748204117
C           -2.25780310248487        2.12340263252248       -0.05545751276974
C           -1.84453717980733       -0.21040203074878       -0.06279233271686
O           -3.04269974932069       -0.40309699169017       -0.12291979668115
N           -0.95314499509616       -1.29911795631340       -0.02807642114513
C           -1.49851640669565       -2.63991068885870       -0.08433579315536
H            4.01754681923008        1.02779641766108        0.86525695298606
H            4.07835751838682        1.30115661973070       -0.81287365803173
H            2.77949322579451        2.10577822886434        0.15231049771248
H            3.54965906358163       -1.71376026030813        0.21127820111941
H           -1.69476523959700        3.05206899346637       -0.03808281806384
H           -2.86713306100048        2.06276201247210       -0.95899956020354
H           -2.92223093067336        2.06745299759927        0.80772837657701
H           -1.23509970900235       -3.21208418415146        0.80791299607980
H           -1.15520588067857       -3.16694995961598       -0.97940479386423
H           -2.58542072522412       -2.54540208407407       -0.13223658827692
H            1.30880291733416       -2.93675176109585        0.08501604847447
25
 energy: -0.798064983253 xtb: 6.6.1 (8d0f1dd)
C            3.35406534454341        1.17642463599373        0.01095011038567
N            2.35210217584324        0.11710393093389       -0.00464111289681
C            2.59589858665759       -1.25300503768879        0.10120695976846
N            1.39497668105616       -1.93012508784506        0.08750585338991
C            0.38923192313551       -1.04067316222451        0.03318280385343
C            0.93488876432838        0.24694321234741        0.01606208415444
C            0.09386712440412        1.38067954195225        0.02980464398512
O            0.43083648262326        2.56548094301605        0.06824038578717
N           -1.30101861811049        1.02955941869934       -0.02221109263943
C           -2.26415723306874        2.12030766053596       -0.05542299697848
C           -1.84822522201604       -0.21235766457508       -0.06586887072897
O           -3.04586788297863       -0.40675519731686       -0.13209635680711
N           -0.95514459305237       -1.29866329267070       -0.02677386266329
C           -1.50143826453660       -2.63948943886296       -0.08846707522206
H            4.05736263355432        0.99878354670180        0.83030051068518
H            4.08473113532647        1.33717004174766       -0.83353024861150
H            2.80455768302624        2.10519237999871        0.17864228801105
H            3.54444140777697       -1.71610653249283        0.23724817340476
H           -1.70220944318192        3.04948466601275       -0.03871270259859
H           -2.87349473883819        2.05795750685578       -0.95891084843265
H           -2.92899285805282        2.06505017437543        0.80753409087798
H           -1.24426363444973       -3.21441170083015        0.80390063349000
H           -1.15500533217105       -3.16518556826677       -0.98331485441926
H           -2.58826544938584       -2.54384494040443       -0.14153650167679
H            1.30348214430551       -2.93393520260202        0.10195236766818
25
 energy: 0.617644607788 xtb: 6.6.1 (8d0f1dd)
C            3.37063613175209        1.17572935881002       -0.00222473686688
N            2.35603107597279        0.12226358260594       -0.01050655487186
C            2.59346393812368       -1.24856009464440        0.10900045307235
N            1.39260661164739       -1.92627790682134        0.09934886654222
C            0.38754420943599       -1.03723547808574        0.03694055656878
C            0.93495653460431        0.25063655678686        0.01022590537730
C            0.08933098141581        1.38126417458145        0.03320058288355
O            0.42171905568179        2.56661699304604        0.07700013747771
N           -1.30629129840384        1.02779371068299       -0.02087670094424
C           -2.27069374162248        2.11750304253791       -0.05508764654658
C           -1.85194962614892       -0.21429652397939       -0.06908688834355
O           -3.04898099714015       -0.41069288619042       -0.14138758516714
N           -0.95724683439412       -1.29822767455460       -0.02549555382529
C           -1.50416982393824       -2.63914990916938       -0.09295576512037
H            4.09461979557644        0.96928985737327        0.79274428950807
H            4.09018947210616        1.37182984308493       -0.85658153556542
H            2.83489401029902        2.10292176001873        0.20012957540451
H            3.53852347320485       -1.71474671244818        0.26350851538731
H           -1.70982731048230        3.04729485227118       -0.03855297880083
H           -2.88009414586123        2.05360426958269       -0.95835155129915
H           -2.93580417930198        2.06261162959287        0.80766441584061
H           -1.25333866309833       -3.21681325631490        0.79955333323191
H           -1.15444550112274       -3.16317435669003       -0.98774096098585
H           -2.59087072726459       -2.54241722046507       -0.15109569538527
H            1.29966933673564       -2.93024301146837        0.11910520533740
25
 energy: 2.070005081292 xtb: 6.6.1 (8d0f1dd)
C            3.38517435487215        1.17633504113131       -0.01684333547870
N            2.35895331910680        0.12833537945159       -0.01758503867592
C            2.59207429062230       -1.24322621152037        0.10280025171151
N            1.39088801188747       -1.92175696517562        0.10994635760648
C            0.38580502746345       -1.03363489328460        0.04072128745885
C            0.93428863564265        0.25449751509149        0.00437491743506
C            0.08433933838974        1.38275923787270        0.03633929598881
O            0.41261197448592        2.56829369786117        0.08588681409802
N           -1.31164952723933        1.02642751533711       -0.01921371295766
C           -2.27730090312850        2.11498440227029       -0.05385164613989
C           -1.85550581245951       -0.21615114844730       -0.07224451907016
O           -3.05182909392552       -0.41464973886895       -0.15088127620758
N           -0.95924812567891       -1.29782618040169       -0.02389228427724
C           -1.50669998825745       -2.63888992832240       -0.09681297660533
H            4.12895903153619        0.94007398634001        0.75026056095935
H            4.09345706725315        1.40775251169672       -0.88078641927271
H            2.86070401017687        2.09910030940647        0.22498957281562
H            3.53152629657621       -1.71131872108785        0.29097316419784
H           -1.71769942668019        3.04551468309680       -0.03795354538143
H           -2.88708357216174        2.04956374054467       -0.95642261187948
H           -2.94238589917435        2.06015858883969        0.80883775862665
H           -1.26251654593266       -3.21915781992533        0.79576842966260
H           -1.15282164288712       -3.16263322165015       -0.98974235860664
H           -2.59314403599332       -2.54107205932097       -0.16072003596389
H            1.29768135850662       -2.92598813400724        0.13577521053318
25
 energy: 3.613141763855 xtb: 6.6.1 (8d0f1dd)
C            3.39802921986517        1.17762204433246       -0.03078314220138
N            2.36123652726056        0.13435433728991       -0.02671355709355
C            2.59122707305565       -1.23798154549129        0.09382737971043
N            1.38939200478769       -1.91673652693391        0.12013815272399
C            0.38386727309094       -1.02981197604405        0.04368266090710
C            0.93330000840079        0.25827993893864       -0.00220231419350
C            0.07956665431544        1.38482168403328        0.03755893132901
O            0.40372636927698        2.57027981108770        0.09431745970576
N           -1.31684382754023        1.02551713665190       -0.01723332105331
C           -2.28391735864779        2.11280164136095       -0.05194626918417
C           -1.85890812272558       -0.21781380636382       -0.07530510184512
O           -3.05442188163219       -0.41862656916418       -0.16038365539127
N           -0.96122552185306       -1.29739502458526       -0.02212934288362
C           -1.50906629656140       -2.63868121222552       -0.10084435027490
H            4.15803631437657        0.90773388444209        0.70728019814900
H            4.09759593952774        1.44473374407238       -0.90212487699585
H            2.88192920310861        2.09280618593210        0.25727502430398
H            3.52424836920773       -1.70630285476790        0.31651084817211
H           -1.72564583536083        3.04442596834770       -0.03763903356432
H           -2.89368741992262        2.04526970756345       -0.95439950345254
H           -2.94857211356056        2.05755853296986        0.81116684662377
H           -1.27178548898763       -3.22179234571524        0.79154892994169
H           -1.14877614539152       -3.16335776397158       -0.98962256328675
H           -2.59518159243260       -2.53976052758982       -0.17092340094318
H            1.29640554046990       -2.92114405726881        0.15251782074265
25
 energy: 5.512762184428 xtb: 6.6.1 (8d0f1dd)
C            3.41156755838015        1.17649484032538       -0.04224211149453
N            2.36062318653329        0.13966802801234       -0.03143448411145
C            2.59084334948281       -1.23426190691533        0.08030539313819
N            1.38806951876986       -1.91187947135793        0.12974633506115
C            0.38164436346408       -1.02667489101857        0.04439423070171
C            0.93112371670141        0.26152233214809       -0.00827333462028
C            0.07490622283535        1.38712993715463        0.03807433358691
O            0.39486370112402        2.57223451345939        0.10255858561039
N           -1.32190316078623        1.02477951650054       -0.01478089346212
C           -2.29024147971987        2.11087589914359       -0.05255344895328
C           -1.86211387236188       -0.21938823567518       -0.07819798577889
O           -3.05678823537311       -0.42234987344149       -0.16941949787633
N           -0.96322239384683       -1.29720322819703       -0.02001858294619
C           -1.51122725887148       -2.63852805585144       -0.10305973954447
H            4.18086649551490        0.86572181617337        0.66868637229894
H            4.10994484591273        1.48313147984885       -0.91827226776613
H            2.90367432369542        2.08121765794503        0.29169442627397
H            3.51884515495310       -1.69345082845521        0.33758849801184
H           -1.73311870379263        3.04378382439107       -0.04150462260068
H           -2.89877237552871        2.03941753529662       -0.95576024637269
H           -2.95531415448292        2.05650498347201        0.81050751103107
H           -1.28159024576066       -3.22278798306169        0.79027495293851
H           -1.14575504777327       -3.16487119955168       -0.98781171396371
H           -2.59679088815793       -2.53788928984527       -0.18054877154631
H            1.29660323188293       -2.91609911546942        0.17061545908941
25
 energy: 6.464926641076 xtb: 6.6.1 (8d0f1dd)
C            3.41052897671137        1.17710925882235       -0.04639075702776
N            2.35582403323472        0.14427596755604       -0.03165149280602
C            2.59175832901237       -1.23050544984632        0.06609687210493
N            1.38919731564214       -1.90641600934318        0.13599842831070
C            0.38079347710262       -1.02454160670140        0.04423147913046
C            0.92865689147946        0.26390677429459       -0.00713879682203
C            0.07193956455254        1.38972928735552        0.03633445121148
O            0.38885706414981        2.57475730893486        0.10767354447999
N           -1.32355948864866        1.02472336775531       -0.01570621268744
C           -2.29213624973237        2.11020168496155       -0.05738454190632
C           -1.86317654545734       -0.22051498092468       -0.08139865803232
O           -3.05684269896950       -0.42419900871477       -0.17978649799460
N           -0.96298206168619       -1.29752877665067       -0.01702520608534
C           -1.50911711345076       -2.63989669447401       -0.09955048136694
H            4.19023437956605        0.82674100044022        0.62780463965690
H            4.09939398382775        1.52021186881992       -0.93652933295615
H            2.91444317645533        2.07276499449935        0.32961355586962
H            3.51644080916449       -1.67524039482821        0.35485548978930
H           -1.73593701394076        3.04423419241715       -0.04851381017088
H           -2.89914366947792        2.03556027393850       -0.96104596198934
H           -2.95661883248740        2.05727133144557        0.80606937957493
H           -1.28202873384439       -3.22151361445064        0.79581132214870
H           -1.14285597275883       -3.16722016130228       -0.98310572719479
H           -2.59413354861712       -2.53977580440760       -0.18159702073163
H            1.30296250087642       -2.91010669252674        0.17351653399830
25
 energy: 21.732792281178 xtb: 6.6.1 (8d0f1dd)
C            3.39125239014807        1.17745134161176       -0.03375406316320
N            2.34515126719445        0.14294262604494        0.00032756574505
C            2.58148806196131       -1.23331577852725        0.07956215782960
N            1.38099314033370       -1.91480851457375        0.13617057714477
C            0.37139159350787       -1.03315668785778        0.05178059260996
C            0.91791887116284        0.25494381608716        0.00999257656982
C            0.06327461719826        1.38373380208154        0.04107379876355
O            0.38920739007801        2.56540370742440        0.10333213951684
N           -1.32824866661617        1.02357554046825       -0.01816294960228
C           -2.29432206007343        2.11152444376382       -0.06038290883746
C           -1.86920506643596       -0.22328138251810       -0.08121360658918
O           -3.06304246336889       -0.42246284712554       -0.17727186864558
N           -0.97182140771386       -1.30174356703407       -0.01733410358005
C           -1.51570167485677       -2.64481618934514       -0.09731035846385
H            4.20410838740267        0.79990496849354        0.56753973497510
H            4.23876936883972        1.62661042571856       -0.97662761480318
H            2.89555617489973        2.07227773400806        0.34011723392172
H            3.50630532525732       -1.67639459178763        0.37218701021809
H           -1.73683858895389        3.04508065320584       -0.05043621936892
H           -2.90060506482206        2.03820969488117       -0.96417021609601
H           -2.95947803679363        2.05884807760126        0.80250600122856
H           -1.28138870689484       -3.22330539285730        0.79848335790738
H           -1.15008052212764       -3.16974611018950       -0.98305314538716
H           -2.60098195759345       -2.54848638260421       -0.17537216599713
H            1.29851193323888       -2.91996059822591        0.15905038629814
