  72
        -99.27959276
 N         -1.7870272399        2.8279088933        2.4596316633
 C         -1.7821491509        2.1703999996        1.3958051276
 C         -2.9491160695        2.0562046592        0.4546444586
 C         -3.4370111857        0.6159281420        0.4231726595
 C         -4.3805697425        0.2235748108       -0.5290156875
 C         -4.8756387007       -1.0683907559       -0.5679159906
 O         -5.7975814748       -1.5246749480       -1.4452007991
 C         -6.4077888742       -0.6178630487       -2.3321190652
 C         -4.4076894007       -2.0254872922        0.3697825454
 O         -4.9396871159       -3.2624390936        0.2541197344
 C         -4.5958221608       -4.2421948397        1.2044624345
 C         -3.4720486925       -1.6315327223        1.3111973419
 C         -2.9967106528       -0.3254323010        1.3386711130
 C         -2.4082899336        2.4691205158       -0.9400721304
 C         -1.5184927376        1.4152568630       -1.6264280868
 C         -0.1832284214        1.2695920461       -1.0050238726
 N          0.4164601800        0.1066199305       -0.7261607060
 C          1.7860801832        0.0755069889       -0.2766008932
 C          2.7483062728       -0.4004515960       -1.3843670506
 C          4.1759798118       -0.3028010361       -0.9280119748
 C          4.9363285637        0.8285344681       -1.2026124783
 C          6.2544699156        0.9412642829       -0.7927056388
 C          6.8609192698       -0.0923293628       -0.0797767071
 O          8.1299002700       -0.1180920957        0.3716784404
 C          8.9858018482        0.9642311354        0.0677078263
 C          6.0801919300       -1.2221598681        0.2065221616
 O          6.7359840337       -2.2815461649        0.9078028639
 C          6.9000257768       -3.5088373122        0.0506181098
 C          4.7657264624       -1.3359679185       -0.2077026129
 C         -0.2555864072       -1.1582214909       -0.9028420232
 C         -4.1511594894        2.9657174093        0.8454467168
 C         -4.7601419599        2.5427920722        2.1804733903
 C         -3.7943602455        4.4492086782        0.8882626578
 H         -4.7442148059        0.9466286415       -1.2400654039
 H         -6.9079410218        0.1938092393       -1.7949033385
 H         -7.1492482559       -1.1981860965       -2.8778394384
 H         -5.6863889967       -0.1983745303       -3.0412219027
 H         -4.8565796646       -3.9263581380        2.2191275798
 H         -5.1782180967       -5.1226793014        0.9402489626
 H         -3.5295704786       -4.4880383563        1.1612126902
 H         -3.1120076136       -2.3316472823        2.0476315804
 H         -2.2942447313       -0.0479611981        2.1094318819
 H         -3.2544474175        2.6717440366       -1.5960415559
 H         -1.8435639224        3.3964469103       -0.8353039599
 H         -2.0465918661        0.4645240361       -1.6663802885
 H         -1.3707903061        1.7590419099       -2.6590211302
 H         -0.8940320218        1.6371594907        1.0064574140
 H          0.4168862654        2.1593219030       -0.8915124957
 H          1.8649780813       -0.5930909577        0.5865029156
 H          2.0816742843        1.0778448434        0.0404623435
 H          2.6010059985        0.2269659993       -2.2644655824
 H          2.5141435116       -1.4307858380       -1.6540676572
 H          4.4984154602        1.6387274345       -1.7653625315
 H          6.8099471036        1.8308177154       -1.0383008618
 H          8.6286483720        1.8928280348        0.5207440565
 H          9.0920469136        1.0951349202       -1.0121262000
 H          9.9500144080        0.6996354925        0.4967888852
 H          7.3900846554       -4.2470979692        0.6729115699
 H          6.1951164337       -2.5774529890        1.6605687347
 H          7.4756737425       -3.2267832028       -0.8214652634
 H          4.2213456363       -2.2429477932        0.0082738372
 H         -0.4515314412       -1.3576998654       -1.9587433743
 H         -1.2054832324       -1.1657895917       -0.3619206638
 H          0.3707252450       -1.9552331313       -0.5108393832
 H         -4.9124117771        2.8236149188        0.0697311522
 H         -4.0409363369        2.6883063288        2.9797230153
 H         -5.0613349281        1.4982102507        2.1610836315
 H         -5.6383856866        3.1482987697        2.3886131479
 H         -3.0101328122        4.6266971010        1.6173133908
 H         -3.4732401742        4.8173914727       -0.0825915769
 H         -4.6712579937        5.0179219985        1.1865431497
 H         -0.9253372186        2.8538483769        2.9967994092
