72
 energy: 0.487173744531 xtb: 6.6.1 (8d0f1dd)
N           -1.49119735145602        2.81202381330372        2.22619734142514
C           -1.56184422867432        2.13022956101369        1.16993540910508
C           -2.75512695434442        2.05305020850630        0.25791674074565
C           -3.33880872810121        0.64989215906023        0.33960458543480
C           -4.32226216980461        0.24727545061260       -0.56604698320935
C           -4.88227906637413       -1.01492073245622       -0.51282912470407
O           -5.84771696275789       -1.48449176989539       -1.35451495421247
C           -6.39919280901829       -0.60991087356756       -2.30468852094761
C           -4.45256961675391       -1.92914791168013        0.47365191365875
O           -5.05918821701441       -3.15095655413558        0.44488174449618
C           -4.74581736699639       -4.07678740749438        1.45263351944660
C           -3.48212567534194       -1.52939020432397        1.37225482919429
C           -2.93217815291584       -0.25382748474285        1.30391275748926
C           -2.21033060332090        2.29410753886211       -1.17742640180778
C           -1.31362061350801        1.16156060091933       -1.71013952635166
C           -0.03496912863800        1.05468775361790       -0.96738687760879
N            0.57914578850261       -0.15389667097596       -0.64749319394558
C            1.96304486992232       -0.17971013229777       -0.26785647203999
C            2.97396817021009       -0.66895642422286       -1.37743055641120
C            4.42561309095177       -0.32865137580941       -0.87476765675439
C            5.17847220035788        0.84426363135189       -0.99469564778350
C            6.49831874449953        0.92818604444321       -0.53307753585182
C            7.10644130183841       -0.14475560341002        0.09141224961099
O            8.38689148161219       -0.19656976133454        0.55664246724308
C            9.21670627297227        0.92214843954542        0.38383638971927
C            6.35007133668101       -1.31930081177729        0.28592863194995
O            7.01436285817367       -2.33142425645668        0.91628234148831
C            6.34912058340707       -3.55092555737967        1.11141086263407
C            5.04958167148115       -1.37548886135384       -0.17573973638567
C           -0.16594036323102       -1.37927491733907       -0.68267810421319
C           -3.87344268294592        3.07647256639219        0.59818080238637
C           -4.48572354550546        2.78994715592480        1.96751993160139
C           -3.38848303219140        4.52460155639141        0.54916561357496
H           -4.66096484984632        0.93967425187831       -1.31863417707784
H           -6.85072819306565        0.26911841547340       -1.83195295508050
H           -7.17462139318377       -1.18367196235147       -2.80970132853870
H           -5.65429463603524       -0.28432390968285       -3.03910135305627
H           -4.97154416456646       -3.68221847702741        2.44937118337389
H           -5.37629391141154       -4.94321305545424        1.25757077275867
H           -3.69366001102244       -4.37973916746719        1.41306240633119
H           -3.14628099481491       -2.20060752632059        2.14701483530984
H           -2.19661029697489        0.03207354924968        2.03904224112587
H           -3.04820802557783        2.41502004015980       -1.86633248596323
H           -1.63849185584265        3.22342800677242       -1.18464205414894
H           -1.87724552367110        0.22906648991927       -1.67568460550330
H           -1.08089063529418        1.38159599901454       -2.76121658755004
H           -0.70923070067574        1.58987136748321        0.70420728023532
H            0.63618806688187        1.90147160758424       -1.03032660810311
H            2.06578229600097       -0.81455183469117        0.62178381904345
H            2.24863950727116        0.83631342826187        0.01151068071254
H            2.73006562954697       -0.10558911736542       -2.28107055221284
H            2.75652674175211       -1.74210480043942       -1.60288696634752
H            4.77028737334568        1.71942139652777       -1.47705573517106
H            7.06750722036804        1.83557465752195       -0.68937700493428
H            8.82710739088748        1.80226434911824        0.90589261590281
H            9.36440607711792        1.15954201691191       -0.67487518517068
H           10.17403619872798        0.64555946044786        0.82214580802191
H            7.07386499999084       -4.20378938262986        1.59462159715510
H            5.47497641371927       -3.43479306121016        1.76178134203939
H            6.03798497119796       -3.99882882981766        0.16129874732016
H            4.48039559854285       -2.27548353460238       -0.01697380097562
H           -0.37120264936371       -1.68777746176957       -1.71309884224757
H           -1.12166963764655       -1.27460916980577       -0.15697345189102
H            0.42060334702974       -2.15246370835670       -0.18987718641206
H           -4.65908663248848        2.95784639189893       -0.15908706002840
H           -3.73127601858492        2.91642672574921        2.73677869152026
H           -4.86910979009733        1.77347622260893        2.01513414142008
H           -5.30673584316165        3.47837419576529        2.15613415200054
H           -2.58492129492434        4.67426170517231        1.26307153411984
H           -3.04124002555482        4.80279984347091       -0.44269863940483
H           -4.20943608733543        5.18874223842139        0.81366244265430
H           -0.58690605340313        2.76352454933597        2.69158464788595
