72
 energy: 4.871645464008 xtb: 6.6.1 (8d0f1dd)
N           -1.49153965128833        2.82225895010196        2.22309803422153
C           -1.56453887800126        2.12395994151371        1.17655510650369
C           -2.75731134955123        2.05088078021869        0.26194262241118
C           -3.34516117037194        0.65009079113832        0.34353391550117
C           -4.32736060212952        0.24746130472833       -0.56332947626954
C           -4.89077835692799       -1.01329362549346       -0.50828181098341
O           -5.85491141135232       -1.48347506674255       -1.35199688344918
C           -6.40006601730331       -0.61043641702758       -2.30712513828437
C           -4.46626327608869       -1.92598448839885        0.48146605121795
O           -5.07603453367895       -3.14697093156112        0.45367374001545
C           -4.76631135847814       -4.07103324255632        1.46395718836157
C           -3.49725351363920       -1.52614743318100        1.38172405285573
C           -2.94377058594256       -0.25230058982519        1.31118111407706
C           -2.21422254767432        2.29198158821814       -1.17475394727730
C           -1.32720306938766        1.15681011461520       -1.72050709212271
C           -0.04410969175517        1.03666013860597       -0.98869780132423
N            0.56495917626664       -0.18010156856023       -0.66969767012045
C            1.95248966957998       -0.21594880496024       -0.29500185450804
C            2.97645168386485       -0.69946618971379       -1.40341054470052
C            4.44359001370787       -0.30238685926407       -0.88386265001924
C            5.20592010966260        0.87204087423616       -0.98382646547435
C            6.52693906281494        0.94952885632684       -0.51563780331205
C            7.13357094993278       -0.12917881957333        0.10018973391825
O            8.41431260331923       -0.19323615637114        0.56391583614755
C            9.25321382319014        0.91987415089032        0.39961003149863
C            6.36975025088015       -1.29920884579131        0.28712159749513
O            7.02918587802120       -2.31869197318312        0.91239571222660
C            6.35716942373586       -3.53522542684243        1.10149583992084
C            5.07006274747687       -1.34645682876557       -0.17941993880081
C           -0.19417835863910       -1.39722923281625       -0.69842843466415
C           -3.87395712404164        3.07621657496005        0.60236066411552
C           -4.48338820393956        2.79365506782030        1.97379090914170
C           -3.38719150606604        4.52356593560276        0.54915017724852
H           -4.66226282629852        0.93830880122619       -1.31901943845489
H           -6.85129129583419        0.27130273336578       -1.83893522742917
H           -7.17485517183222       -1.18366133716221       -2.81363508191761
H           -5.65103267193228       -0.28856479398000       -3.03896911338807
H           -4.99365744532229       -3.67413543904759        2.45949493861815
H           -5.39737433422103       -4.93722443355040        1.26942857965190
H           -3.71436655647540       -4.37523459955087        1.42760244283458
H           -3.16539707565059       -2.19618819124849        2.15924509915007
H           -2.20962110895401        0.03422924270635        2.04727912047098
H           -3.05360656658070        2.42264202536996       -1.86055504244967
H           -1.63518371934468        3.21695522630090       -1.17948854032765
H           -1.89597662841628        0.22721138226266       -1.68726299749996
H           -1.10124390434071        1.38223528557228       -2.77220970382427
H           -0.71550216713541        1.57391867304155        0.72090889723574
H            0.63388953523178        1.87926194346815       -1.05321443970033
H            2.05211208699646       -0.85267887015621        0.59447260480514
H            2.23640458011080        0.79900471183557       -0.01223681072002
H            2.72476719975456       -0.14576495868278       -2.31025216275943
H            2.77249861698659       -1.78297637649121       -1.62738576284851
H            4.80845915678331        1.75788626192621       -1.45591057528239
H            7.10311609866033        1.85501902822471       -0.66380836628439
H            8.87104157089782        1.79940548384296        0.92799173942406
H            9.40472672172489        1.16351260669535       -0.65712916788527
H           10.20795575996485        0.63285439569410        0.83679120583234
H            7.07847207186595       -4.19519174567607        1.58010951897233
H            5.48430532363862       -3.41682180185264        1.75323587631652
H            6.04216440954744       -3.97595836274563        0.14925109301757
H            4.49992517641171       -2.24500118386678       -0.02066618147945
H           -0.40829810265547       -1.70371528302668       -1.72757168349025
H           -1.14654002954880       -1.28182012128223       -0.16816005941831
H            0.38700047468570       -2.17573734468277       -0.20696889797224
H           -4.66241973641230        2.95738060134710       -0.15253121904813
H           -3.72507936615353        2.92029278944420        2.73914307698560
H           -4.86802831912416        1.77772171361289        2.02445880220673
H           -5.30290834414438        3.48371426229688        2.16372642001077
H           -2.58128373966267        4.67151339109058        1.26036801144709
H           -3.04224585951482        4.79931085496812       -0.44413824770085
H           -4.20614199323064        5.18997135125777        0.81514535577410
H           -0.58552657720650        2.76398379200163        2.68367205254877
