72
 energy: -4.841499642136 xtb: 6.6.1 (8d0f1dd)
N           -1.49176523129452        2.79091320211591        2.23286830927027
C           -1.55621323069439        2.14208137726109        1.15790274495635
C           -2.75062200851612        2.05693564769626        0.25061349522491
C           -3.32632317811779        0.64915111871489        0.33201356973940
C           -4.31213115295505        0.24662481392179       -0.57150794940868
C           -4.86525783260247       -1.01848947652936       -0.52188944945077
O           -5.83323969134854       -1.48697466810735       -1.35951242760838
C           -6.39746808949844       -0.60976799601603       -2.29995572249695
C           -4.42520794288123       -1.93569585003215        0.45811791365013
O           -5.02541290000429       -3.15916614583815        0.42732970459484
C           -4.70485995125772       -4.08852410092428        1.43000365529504
C           -3.45208101877443       -1.53609290596878        1.35361333460907
C           -2.90933181762393       -0.25709179737288        1.28974486316430
C           -2.20239506654635        2.29829109674764       -1.18189840434993
C           -1.28687548778497        1.17148569692542       -1.68937362745706
C           -0.01476829327099        1.09253992785125       -0.93010000725880
N            0.60796765595782       -0.09942267679114       -0.60366179565171
C            1.98464511825967       -0.10549305741090       -0.21332272864908
C            2.96026775548884       -0.60471625002262       -1.32723549046212
C            4.39440060074985       -0.38191552972331       -0.85641182778218
C            5.12685086162427        0.78777407276547       -1.01740963365422
C            6.44222781760760        0.88543034532978       -0.56708604544648
C            7.05150270313970       -0.17680153802827        0.07506790078285
O            8.33134468203410       -0.20425128492194        0.54213913848776
C            9.14290572363868        0.92517547789739        0.35100564464517
C            6.31016167071568       -1.36036523402595        0.28392927904393
O            6.98366890435850       -2.35802203304754        0.92394180071374
C            6.33175613261888       -3.58312328761835        1.13186515206971
C            5.00802153718896       -1.43518575579440       -0.16832308303865
C           -0.10759921537658       -1.34141101673211       -0.65019119687600
C           -3.87203572614865        3.07680243934032        0.59023929403129
C           -4.49117573407998        2.78258666038063        1.95504232250155
C           -3.39220165105856        4.52662371332650        0.54915842475337
H           -4.65903160453897        0.94226319733181       -1.31754260881268
H           -6.85005615429432        0.26375724435533       -1.81845343438521
H           -7.17391085833587       -1.18496345669049       -2.80194248001744
H           -5.66097712226996       -0.27669397584915       -3.03946683678824
H           -4.92751959351394       -3.69874584474919        2.42913430652552
H           -5.33409786399368       -4.95543135985377        1.23370642261264
H           -3.65228170729521       -4.38891237062770        1.38410430781757
H           -3.10833950481407       -2.20955061993584        2.12293332185207
H           -2.17130725324114        0.02776313088144        2.02326027434070
H           -3.03690370634133        2.40038108309211       -1.87697200169491
H           -1.64467170986986        3.23607837012609       -1.19401095864434
H           -1.83869684869183        0.23236551477134       -1.65064693897004
H           -1.04418500236796        1.38091926238688       -2.73926889789655
H           -0.69667376638985        1.62213680992122        0.67184648867699
H            0.64102967742929        1.94863994227871       -0.98649298850175
H            2.09503847327564       -0.73954987486573        0.67452591479088
H            2.27762504570645        0.91154644398976        0.05810293116671
H            2.74875284335016       -0.01815069491087       -2.22368396530270
H            2.71683595227484       -1.65766103539346       -1.55537919126972
H            4.69553565345529        1.63976104190258       -1.52070476389516
H            6.99660838398016        1.79616330575235       -0.74080675881335
H            8.73943802317634        1.80636327372752        0.86086496498937
H            9.28197746009634        1.15022022528656       -0.71165520785058
H           10.10557176319926        0.66916263572752        0.79026115167705
H            7.06394208671490       -4.22101440054979        1.62394751147964
H            5.45580853489011       -3.47119426655380        1.78048508911263
H            6.02746699413221       -4.04617359135710        0.18680502789838
H            4.44064000482722       -2.33829593754653       -0.01155110061034
H           -0.29594238179431       -1.65615854030807       -1.68224968611529
H           -1.06890046416996       -1.25792627466085       -0.13233899146735
H            0.49088106111170       -2.10253491760908       -0.15412985895025
H           -4.65207056273596        2.95767305526138       -0.17183563575178
H           -3.74525537598443        2.90944036663538        2.73267266331862
H           -4.87190510131786        1.76499915527778        1.99671064695720
H           -5.31554694129192        3.46754956276660        2.14012079151260
H           -2.59359324528916        4.68077985098564        1.26830163033146
H           -3.04079134233429        4.80974103804299       -0.44005425236302
H           -4.21772188323818        5.18567623283908        0.81013559040916
H           -0.59126052667646        2.76552792858932        2.70767390318349
