72
 energy: 97.222980615354 xtb: 6.6.1 (8d0f1dd)
N           -1.41662358551906        2.84501980652696        2.12699288826753
C           -1.55859629471409        2.04703563817480        1.17240336823765
C           -2.78094218874488        2.00576690123280        0.29607107789368
C           -3.42892512826315        0.63529932165540        0.39772899990248
C           -4.39835426653435        0.24462324338346       -0.52963858128197
C           -5.01551301772170       -0.98968119609817       -0.44913523406501
O           -5.96060219691234       -1.45218641689416       -1.31127508968546
C           -6.41530663984190       -0.61030378814410       -2.34160436283293
C           -4.66738610181681       -1.87999717413496        0.59430778105728
O           -5.32280424804268       -3.07096590243788        0.58951160667199
C           -5.07305021098459       -3.98249535166664        1.63050300990938
C           -3.72197557933371       -1.48268023105738        1.52084278152919
C           -3.10959414017483       -0.23784320950598        1.42085156866773
C           -2.25228999761922        2.25323542110682       -1.14245437549687
C           -1.54596126371708        1.06156657661749       -1.82269530991467
C           -0.21788928912730        0.71622766447662       -1.25307815625777
N            0.19596659717620       -0.47911354378480       -0.90727913082039
C            1.67899536674695       -0.73796805881798       -0.67908531924392
C            2.28345784867093       -1.39465385575675       -1.83213638245310
C            4.97841379342320        0.31986362096155       -0.64401111585048
C            5.79887783795041        1.40158214061647       -0.72665150146743
C            7.11538873923508        1.29895914597722       -0.27280576796134
C            7.58352078310179        0.10186686084307        0.23070190731481
O            8.85780062455469       -0.12924951857084        0.69231216578639
C            9.81099505935859        0.89224660304821        0.64621000158446
C            6.72584172169690       -1.01228543747767        0.31076629607497
O            7.28118571567571       -2.14307238088589        0.84568329289021
C            6.48419190677232       -3.29349611355473        0.94291959037974
C            5.42329599649434       -0.88641865706097       -0.14287534092064
C           -0.67283955550975       -1.62390476516189       -0.93697538414069
C           -3.85708167874344        3.06968734716464        0.66347016987208
C           -4.42529804571236        2.83895069326881        2.06400706307024
C           -3.35440660502155        4.50784060797401        0.54679305863705
H           -4.67937314100047        0.92415104155229       -1.31734191472489
H           -6.86438731553069        0.30538282127567       -1.94379636382480
H           -7.17502680273935       -1.18406013961528       -2.86851834614942
H           -5.61117658469158       -0.35141049135319       -3.03925471925398
H           -5.32775942564967       -3.55816484548404        2.60713352586933
H           -5.71931560659584       -4.83544973961542        1.43018026288647
H           -4.02945137679817       -4.31473970940139        1.63853560351515
H           -3.45238318917719       -2.13034187948397        2.34018745522834
H           -2.39682896745934        0.04900161788320        2.17850169609413
H           -3.09821638443614        2.53533049413601       -1.77543078404939
H           -1.57337096876216        3.10907742653345       -1.11400857038867
H           -2.20693549073573        0.19540113497434       -1.80803276895587
H           -1.39073768091006        1.36318390862652       -2.86660717621260
H           -0.79679099457674        1.32172341608754        0.85304907091755
H            0.50759529592270        1.51837981906275       -1.18299582901503
H            1.72450061903889       -1.35793945088440        0.21600223788444
H            2.08301405771947        0.23662636430242       -0.42173029963253
H            2.44060159593954       -0.78072556613838       -2.71318014218938
H            2.13817998316524       -2.45879426559686       -1.99060487758621
H            5.44813657387678        2.33180926951865       -1.13625545822367
H            7.75201098884752        2.16975713044094       -0.32533016421790
H            9.53395041075590        1.75278559790408        1.26561696858179
H           10.01387554253785        1.22737832587616       -0.37722995274947
H           10.71451542725896        0.44242709537887        1.05815742991743
H            7.13492350658271       -4.06445760013469        1.35358012386269
H            5.63113500881498       -3.14211781535555        1.61655658701414
H            6.11667222393551       -3.61803525865010       -0.03697908275199
H            4.76952551863293       -1.73527172571451       -0.07775476446416
H           -0.99169897742346       -1.88209088173044       -1.94578856191387
H           -1.55698522060831       -1.40373092116272       -0.33356392179625
H           -0.13795030681426       -2.46524748203416       -0.49672001226134
H           -4.68036806520508        2.93826950264388       -0.05139739221942
H           -3.64545331831037        2.97284095804216        2.80630639829807
H           -4.84123563743296        1.83817007227059        2.15820804371442
H           -5.21957403967616        3.55569259370672        2.26110553246131
H           -2.51373520446168        4.66233447555435        1.21392628897116
H           -3.05926248913910        4.75395830560589       -0.46949220341898
H           -4.15101115682069        5.19055367378120        0.83466504407096
H           -0.53104250929732        2.79659936980275        2.62500208089906
