72
 energy: 77.885207474495 xtb: 6.6.1 (8d0f1dd)
N           -1.48417951365352        2.86900078472754        2.19149023219945
C           -1.58362907465556        2.10397956537711        1.20071779786161
C           -2.77682069675239        2.03566088467743        0.28382475141927
C           -3.38829736209739        0.64839089340190        0.37026972561905
C           -4.36270706529910        0.24851222328406       -0.54618276169500
C           -4.95073440054499       -1.00154236963091       -0.47876036889431
O           -5.90527152822806       -1.47217814289620       -1.33479824041519
C           -6.40624370697415       -0.61160674365655       -2.32475059832010
C           -4.56187276160294       -1.90324505934293        0.53513939273239
O           -5.19290878319877       -3.11489523212402        0.51567030416096
C           -4.90954271363443       -4.02949190847397        1.54112145809414
C           -3.60194637786376       -1.50486548591102        1.44751647119273
C           -3.02255268045953       -0.24347509349744        1.36155702753578
C           -2.24119729506477        2.28034146130802       -1.15840639477933
C           -1.42850635009445        1.11891708756420       -1.78010573143631
C           -0.10769081080404        0.88030519303663       -1.14647167538915
N            0.41531020809096       -0.34672024962987       -0.81805510560549
C            1.83183674116973       -0.47153773702803       -0.47680472640617
C            2.70241512201120       -1.01188194143534       -1.60346830578471
C            4.71048795858774       -0.05108130493497       -0.83412416796691
C            5.47568066150562        1.10610794810866       -0.88817898077845
C            6.78854960207588        1.11667187792790       -0.39509344264871
C            7.34325081539029       -0.01899638393117        0.16198566523329
O            8.62464856403698       -0.16272646628739        0.62494298212724
C            9.51577471492498        0.90942497585733        0.51483542452143
C            6.54035099865040       -1.16260217458857        0.29931208465264
O            7.15080881026218       -2.23530051693133        0.89006115003003
C            6.41623208133002       -3.42090609041906        1.03007141420272
C            5.24599923551667       -1.14733057408184       -0.18301077733347
C           -0.41392933169047       -1.51789692389122       -0.80882173841172
C           -3.87829475049868        3.07647651605609        0.63211170323958
C           -4.46359730785388        2.81709127386271        2.01841460762824
C           -3.37642466220445        4.51553541250075        0.54792481663247
H           -4.67168307011245        0.93028535797667       -1.32099279874508
H           -6.85608291376807        0.28705492114405       -1.88842493584643
H           -7.17580534914709       -1.18164148765731       -2.84154333644081
H           -5.62978825359877       -0.31727656395267       -3.03918478834150
H           -5.14912805466717       -3.61952536077662        2.52854038329997
H           -5.54526382262862       -4.89318656748994        1.34959995179148
H           -3.86030254640681       -4.34543378733696        1.52703289346003
H           -3.29865382473479       -2.16505016355383        2.24467399906713
H           -2.29892707757768        0.04700131007149        2.10654344465837
H           -3.08581023707179        2.47776068092354       -1.82286239109881
H           -1.61083050470863        3.17106646414896       -1.14481416261815
H           -2.03604801767634        0.21424166379390       -1.76177592938429
H           -1.24087455650126        1.38470604873485       -2.83135938648503
H           -0.76114207256334        1.47097437531690        0.83819406038480
H            0.60875158056318        1.69976558947349       -1.16999053844991
H            1.93477597081855       -1.11484586753013        0.40988719804805
H            2.14557861514490        0.52888895303030       -0.18732232275962
H            2.64147781237968       -0.44629267709005       -2.51767266970701
H            2.59746776321810       -2.11814358292007       -1.80087327239258
H            5.10589888822125        2.02021241258625       -1.31525490928470
H            7.39198849698496        2.00857542467762       -0.48451554794338
H            9.18260891848625        1.78380560046100        1.08402100609764
H            9.69067477175901        1.19490396044103       -0.52831065005843
H           10.45128879004513        0.55267172133371        0.94172608895888
H            7.10312901466213       -4.13651956489304        1.47643595492532
H            5.55049864479451       -3.28696942984021        1.68963321345520
H            6.07599772921548       -3.80736676910977        0.06283483289949
H            4.64562294706284       -2.02275369634210       -0.04283653585802
H           -0.68083514800009       -1.81159049348190       -1.82543278856295
H           -1.33612985117293       -1.33881370509846       -0.24618299293252
H            0.13816958601945       -2.32897176277692       -0.32820760113048
H           -4.68111894299169        2.95110921599978       -0.10518589615017
H           -3.68559584484925        2.94807221141758        2.76309040140305
H           -4.86022359835569        1.80677703625775        2.08867077016875
H           -5.27081487758173        3.51863191904061        2.21559413181905
H           -2.55332351350956        4.65538452082564        1.23903370732788
H           -3.04978284021944        4.77616791619083       -0.45501082646654
H           -4.18084496730610        5.19434335770385        0.82489882865711
H           -0.58976659049742        2.80786934882920        2.67546757376501
