72
 energy: -5.733888104781 xtb: 6.6.1 (8d0f1dd)
N           -1.49173387721358        2.78095454306210        2.23403823169098
C           -1.55302160956194        2.14733140389268        1.15102874270409
C           -2.74840964609256        2.05845809088202        0.24671862244269
C           -3.32013484340422        0.64841215320513        0.32813970461141
C           -4.30726719706700        0.24620820100958       -0.57420103305457
C           -4.85686350497521       -1.02031550060914       -0.52628731813571
O           -5.82620588856979       -1.48804819350968       -1.36185137032770
C           -6.39658941366516       -0.60951971462792       -2.29747305098374
C           -4.41155213891982       -1.93899998260098        0.45042382103780
O           -5.00861888493969       -3.16320831091145        0.41875059258218
C           -4.68434925666257       -4.09424248302457        1.41884187393562
C           -3.43696571972990       -1.53974598115504        1.34434389635548
C           -2.89776174396474       -0.25911382278313        1.28253582080092
C           -2.19890043000485        2.30039907508759       -1.18433526350302
C           -1.27491017960644        1.17522095638161       -1.67788813621272
C           -0.00554654544417        1.11093079568006       -0.91162215692049
N            0.62069843318439       -0.07235225882488       -0.58200683220622
C            1.99328690497525       -0.06821882499625       -0.18557339701707
C            2.94747172272085       -0.57229053125501       -1.30272554210082
C            4.37684578812061       -0.40810836500288       -0.84710731036246
C            5.10098229430613        0.75935252581654       -1.02926855527514
C            6.41430751814213        0.86379002035446       -0.58497343842912
C            7.02422516764378       -0.19299378525813        0.06598348921560
O            8.30348151009028       -0.20795626419375        0.53453269165805
C            9.10588336768463        0.92672159809731        0.33510580634762
C            6.29005967862399       -1.38064570921566        0.28195212545837
O            6.96830157862577       -2.37082980909262        0.92718026254583
C            6.32383777506748       -3.59901254413846        1.14203029420053
C            4.98655453011245       -1.46453499310033       -0.16534433482411
C           -0.07961024146331       -1.32206470185009       -0.63484491605624
C           -3.87050300718933        3.07712659641642        0.58679740689306
C           -4.49324109733555        2.77890546660232        1.94926274681576
C           -3.39317342674682        4.52797830926083        0.54898205437515
H           -4.65853403581538        0.94370412737026       -1.31664490894953
H           -6.84984185374132        0.26121439722613       -1.81168997456053
H           -7.17350603240489       -1.18538324392316       -2.79801954253374
H           -5.66433411408957       -0.27278019935720       -3.03954823380791
H           -4.90545112794922       -3.70693410087387        2.41917674419625
H           -5.31297594638788       -4.96137379977567        1.22198957306724
H           -3.63159102845766       -4.39343341600318        1.36974049733658
H           -3.08927132821907       -2.21422884842592        2.11100578387306
H           -2.15862120482243        0.02527910798792        2.01545953715361
H           -3.03124590169920        2.39304832681821       -1.88281845518652
H           -1.64779783444105        3.24231151280497       -1.19896194283492
H           -1.82064074781806        0.23292860123544       -1.63660627163529
H           -1.02635317959748        1.37918881126955       -2.72689629555042
H           -0.69038790735812        1.63725086790827        0.65519096549956
H            0.64331982392006        1.97017349797138       -0.96339149958456
H            2.10759596602172       -0.70143438870294        0.70163120823266
H            2.28959657681958        0.94894386460008        0.08334839215043
H            2.75656797480604        0.02482457684636       -2.19657770786936
H            2.69453898154506       -1.61548388918842       -1.53326624972578
H            4.65816867588152        1.60075302970051       -1.54084567977392
H            6.96084751658499        1.77657949578713       -0.76611884229082
H            8.69505826190856        1.80829493934655        0.83870470762174
H            9.24156057269314        1.14567866340329       -0.72937730181549
H           10.07065751987546        0.68064753449512        0.77560560765857
H            7.05964185828362       -4.22910811260762        1.63900839738760
H            5.44684248567518       -3.48932336058806        1.78954183232053
H            6.02363062584385       -4.07007940103860        0.19964221014097
H            4.42073702407286       -2.36936215830497       -0.00850264929608
H           -0.25853140293500       -1.63935963445259       -1.66784591383062
H           -1.04378114013352       -1.25002060663956       -0.12145359411609
H            0.52456230041608       -2.07722604889272       -0.13727657421040
H           -4.64789311102655        2.95738153659688       -0.17721319218125
H           -3.75217009944632        2.90597667996761        2.73165796426716
H           -4.87322342040024        1.76091573431414        1.98773841044383
H           -5.31908065744226        3.46238012575430        2.13217621128803
H           -2.59701123436235        4.68452941991703        1.27059692908957
H           -3.04016106407553        4.81330891678200       -0.43907262149171
H           -4.22108387129884        5.18412226152091        0.80831417569380
H           -0.59407592079025        2.76696614762895        2.71500344863827
