72
 energy: 94.728666872016 xtb: 6.6.1 (8d0f1dd)
N           -1.43232775235352        2.84340197635373        2.14836422674617
C           -1.56794906013707        2.05744476985003        1.18165612043783
C           -2.78393634965682        2.00698383919267        0.29515404172290
C           -3.43371434075415        0.63649110877373        0.40323479222184
C           -4.40196113434971        0.24542040040508       -0.52563018355481
C           -5.02200527848279       -0.98718790916339       -0.44378410406247
O           -5.96724172512323       -1.45103734385066       -1.30706418602607
C           -6.41674719190590       -0.61261348041983       -2.34007009341101
C           -4.67988600966659       -1.87446126555612        0.60271512159071
O           -5.33670542656417       -3.06571980996593        0.59666728380528
C           -5.09212626786182       -3.97503639535179        1.63947549017517
C           -3.73692914163630       -1.47707864230176        1.53189665187509
C           -3.12243605994852       -0.23376119111814        1.43149313585147
C           -2.25906950023057        2.25502876285885       -1.14751715857112
C           -1.56400931548041        1.05963135178480       -1.83127958500829
C           -0.25444445193859        0.71105130316282       -1.21626364705010
N            0.14136437116626       -0.47313748093096       -0.83293419019136
C            1.68770038407905       -0.81250823095824       -0.70178219377035
C            2.13521326965550       -1.46875183248664       -1.87435509435058
C            5.07110923839543        0.42862965380756       -0.58696829687540
C            5.91061750210183        1.49557632241523       -0.66944893064286
C            7.23220248958416        1.34447859228602       -0.23820937646359
C            7.66327786052272        0.12695236613302        0.25277835286356
O            8.93128538538909       -0.13848301901657        0.71563110619954
C            9.90046184885871        0.87686824198995        0.68472233145372
C            6.77048240503403       -0.96744735392600        0.31941352268292
O            7.30463357864532       -2.12230928798989        0.82351821749774
C            6.49164818092413       -3.25930585465584        0.92206285942485
C            5.45822104841092       -0.79954301145562       -0.11003850868617
C           -0.72962697894527       -1.62270915655599       -0.93085652609844
C           -3.86002266971082        3.07082353894090        0.66091399824234
C           -4.42194153273866        2.84083180308336        2.06384345814421
C           -3.35580201238865        4.50797697952409        0.54603817885501
H           -4.67605754620761        0.92298978682160       -1.31813146321244
H           -6.86648791719261        0.30697384115116       -1.95091874605252
H           -7.17679567819217       -1.18633704181181       -2.86845458677645
H           -5.61161019591806       -0.35679989320437       -3.03767337002428
H           -5.34759604111558       -3.54977167194417        2.61570310149668
H           -5.73928230202144       -4.82740440353559        1.43861093487143
H           -4.04915333569660       -4.30951229161858        1.65100139805968
H           -3.46806254994353       -2.12397434515440        2.35141314311998
H           -2.40432466998289        0.05146924736216        2.18456251449185
H           -3.10254497633552        2.54543732044621       -1.77481136840525
H           -1.56845904765267        3.09980306825978       -1.11817377638654
H           -2.23722914711661        0.20404609754554       -1.82871451607813
H           -1.38966974107028        1.35394722590627       -2.87147042262554
H           -0.78994157852801        1.35623501923561        0.84773097235929
H            0.47113118958793        1.50798757570089       -1.12848796261751
H            1.69135508402867       -1.42201297589849        0.20172643290872
H            2.13280652223530        0.16200126890124       -0.51677598648336
H            2.34849813673611       -0.88753116739147       -2.75366597162982
H            1.94708959993677       -2.51757609794883       -2.02131423365433
H            5.57287955914012        2.43979218343960       -1.06853477284214
H            7.89973920316977        2.19120023206064       -0.29677129352415
H            9.61469753946209        1.73491864641520        1.30329927831022
H           10.10078000422084        1.22343344754024       -0.33580719632986
H           10.80646181434826        0.42527441170036        1.09086931660491
H            7.12784467058644       -4.04226308003514        1.33591222206646
H            5.64633202520337       -3.09282728530192        1.59729593123618
H            6.11635400015456       -3.57768890895262       -0.05656357159583
H            4.75668078481837       -1.61879717795718       -0.08238691706282
H           -1.03646142174940       -1.86170247570193       -1.95249486276933
H           -1.62262868760032       -1.43381027956098       -0.33320101858303
H           -0.20446536010651       -2.48420955929705       -0.52335477712943
H           -4.68117607260470        2.94078992719923       -0.05415863901659
H           -3.63884934518302        2.97345780951118        2.80284874146700
H           -4.83501251730190        1.84000433605086        2.16208482552194
H           -5.21356062078559        3.55957515227734        2.26238887364297
H           -2.51403691743263        4.66167232126710        1.21348208591642
H           -3.05670475089313        4.75119402112415       -0.47009577545466
H           -4.15212701832751        5.19071888295679        0.83354031578935
H           -0.54238090232547        2.79087243559313        2.63943883815326
