72
 energy: 52.423720155680 xtb: 6.6.1 (8d0f1dd)
N           -1.50023167022525        2.86231697365399        2.20584288292887
C           -1.57625268898779        2.11236242823180        1.19763474000770
C           -2.76981303473472        2.04059432361983        0.27920394326626
C           -3.37611843020594        0.64965192881410        0.36260304981420
C           -4.35283236271015        0.24825468463685       -0.55072742710997
C           -4.93359721191031       -1.00502769659525       -0.48654019326258
O           -5.89143963886691       -1.47679502336036       -1.34009816673109
C           -6.40446209499218       -0.61222604894214       -2.31983241334370
C           -4.53507309013923       -1.90998140987239        0.51968961773326
O           -5.16042660531454       -3.12617925634999        0.49733563701595
C           -4.86861480724252       -4.04189066445103        1.51921581944999
C           -3.57303177475134       -1.51100858617103        1.42869880346037
C           -3.00116080552761       -0.24614868040024        1.34694824444013
C           -2.23382605585126        2.28416255695524       -1.16270853367142
C           -1.39839829821827        1.13192485382338       -1.76711862341739
C           -0.09171219938730        0.93829847958233       -1.09930680771037
N            0.47168296416433       -0.30799466575164       -0.77880487104448
C            1.87188157731946       -0.39284093792759       -0.42399393780156
C            2.85016214389802       -0.88266080219934       -1.52981369816352
C            4.60119458240666       -0.15698003408357       -0.87798498350644
C            5.37550202452108        1.02156149450952       -0.92210667133596
C            6.69567348908377        1.06073243383844       -0.43032150072561
C            7.27954950040405       -0.05281513141272        0.14477557576763
O            8.55993399465220       -0.17272735637379        0.60475378868809
C            9.43865244376269        0.91285728042115        0.48071164586844
C            6.48571028631382       -1.20266750225739        0.29680178975704
O            7.11248312848589       -2.25848774510504        0.89660999228655
C            6.39782647009263       -3.45532220521466        1.05081204007775
C            5.18919500778329       -1.21080772675480       -0.18646264135105
C           -0.34570852562126       -1.48560179626498       -0.77649815974055
C           -3.87663364288749        3.07600514664004        0.62394839120567
C           -4.46976048786774        2.81082164991311        2.00594180796786
C           -3.38013258965363        4.51807079771804        0.54917111919771
H           -4.66900610942260        0.93220779341017       -1.32077037406866
H           -6.85479082436495        0.28216113641755       -1.87438588331405
H           -7.17596871536388       -1.18255554073458       -2.83396427793125
H           -5.63570501217134       -0.30922266416187       -3.03905340678562
H           -5.10436675912455       -3.63497309255876        2.50903043384075
H           -5.50242478760916       -4.90701656881811        1.32762120300843
H           -3.81810183823800       -4.35339220636284        1.49905541811383
H           -3.26155447482925       -2.17445893111936        2.22026956175806
H           -2.27464950996338        0.04334480808757        2.08910296616245
H           -3.07728471413698        2.46346389864112       -1.83360553113535
H           -1.61663460697316        3.18476687737718       -1.15350654370940
H           -1.99269749803280        0.21789145508240       -1.74238746894612
H           -1.20202399188263        1.38560002201253       -2.82021916291622
H           -0.74591701461280        1.50488853432037        0.80790205150965
H            0.62008792335781        1.75684027303487       -1.15062041708264
H            1.97473641394590       -1.03799142671660        0.46233707911747
H            2.16890462437957        0.61316843140370       -0.13438220331175
H            2.67165774524153       -0.35641791766581       -2.45860238596398
H            2.72109347625294       -2.00487989515318       -1.73985151820023
H            5.01431059402122        1.94013932167089       -1.35660449986476
H            7.29778379092025        1.95635603494450       -0.53663087861226
H            9.09171019050813        1.78845817465466        1.03915897308938
H            9.60713268228238        1.18669309078629       -0.56620826042237
H           10.38055758673793        0.57681365232530        0.91055000874308
H            7.09651693282492       -4.15448222890960        1.50528481460517
H            5.53068504511426       -3.32546974164912        1.70847158954122
H            6.06454918668767       -3.85622932949013        0.08709410053416
H            4.60107805753063       -2.09212912820947       -0.03306550242891
H           -0.60061893965905       -1.78319184976040       -1.79783642821619
H           -1.27828343655452       -1.32173869255856       -0.22344610965183
H            0.21125154198052       -2.28889725322727       -0.29205351444705
H           -4.67647614112003        2.95348115757992       -0.11850966689293
H           -3.69503572964349        2.93979807472552        2.75426285183605
H           -4.86225651731542        1.79842095740344        2.07077412742507
H           -5.28057136581142        3.50944280882358        2.20172565614375
H           -2.56174887620460        4.65840545805817        1.24615049385500
H           -3.04805139742244        4.78321129326234       -0.45116643005770
H           -4.18860105959541        5.19377562835082        0.82370506461469
H           -0.59439367852873        2.79434510174129        2.66838396716010
