72
 energy: 17.824428635626 xtb: 6.6.1 (8d0f1dd)
N           -1.49509521394376        2.84446191367423        2.21731677661692
C           -1.56602076056068        2.11927733878384        1.18783931965843
C           -2.76076468050666        2.04706486414812        0.27003886034304
C           -3.35723293038127        0.65055821444668        0.35140468186878
C           -4.33733674407998        0.24806607782970       -0.55800171032459
C           -4.90770375522775       -1.00985160768812       -0.49943410671638
O           -5.86935403445255       -1.48113548205794       -1.34729776485481
C           -6.40185369944699       -0.61148107700385       -2.31230940990643
C           -4.49379456707372       -1.91965227380871        0.49666718013766
O           -5.10980339869664       -3.13907238323813        0.47080232023056
C           -4.80710604249808       -4.05959991407325        1.48585660788279
C           -3.52774667539593       -1.52000946282204        1.40043773215499
C           -2.96697596228645       -0.24960836070404        1.32559318679109
C           -2.22162105427121        2.28920556696652       -1.16935348354913
C           -1.35463461213093        1.14754962380079       -1.73959503374448
C           -0.06321601878756        1.00010109046854       -1.03053257414699
N            0.53249290406700       -0.23199917641200       -0.71410695174039
C            1.92532012884833       -0.28586433138581       -0.34719222661727
C            2.95729831176687       -0.76108669878221       -1.45121209830744
C            4.48821459427836       -0.25184026136287       -0.89744461936362
C            5.26668506668762        0.92557259321894       -0.96454018580845
C            6.58869815712730        0.99056830148692       -0.48275383543199
C            7.19051291477286       -0.09948997744712        0.11748977405035
O            8.47140136804790       -0.18569936803790        0.57911272072167
C            9.32675407876424        0.91712981615555        0.43152218531247
C            6.41195691538075       -1.25991063415881        0.29028654148036
O            7.06005089349841       -2.29395084413527        0.90585786455002
C            6.37246440355909       -3.50347971138952        1.08137099528367
C            5.11321169914018       -1.29045853866472       -0.18530732751324
C           -0.25310803102786       -1.43201970545421       -0.72938432921069
C           -3.87468764428673        3.07570010232679        0.61098713725983
C           -4.47833877543885        2.80031915291535        1.98647776824199
C           -3.38465359709269        4.52169668259915        0.54917275519592
H           -4.66520825787158        0.93605332248394       -1.31959456111853
H           -6.85274849234386        0.27547494705258       -1.85323374533106
H           -7.17542825884448       -1.18348613288290       -2.82191220968259
H           -5.64485037550256       -0.29693417339435       -3.03908310589694
H           -5.03780358268649       -3.65865352034088        2.47915480556278
H           -5.43907909658958       -4.92554536942073        1.29261072781763
H           -3.75561516006786       -4.36645547650899        1.45600791241836
H           -3.20411086275597       -2.18765360757338        2.18358599647484
H           -2.23591869536425        0.03770149595699        2.06415426144074
H           -3.06314256236184        2.43896947761164       -1.84939403126523
H           -1.62753189367419        3.20478493413331       -1.16853327843957
H           -1.93277564131514        0.22290400343135       -1.70986990878049
H           -1.14021687516819        1.38415224310069       -2.79240921824620
H           -0.72669379185965        1.54453239047183        0.75634972729455
H            0.62966287974818        1.83233466959002       -1.09378467551152
H            2.02316561355214       -0.92596484119795        0.54172543479890
H            2.21049909209877        0.72623251432464       -0.06047697230819
H            2.70846908300207       -0.22999446016139       -2.36896032158557
H            2.78905844692841       -1.86696167720160       -1.66914348001973
H            4.88972742639098        1.83029146530759       -1.41781689550101
H            7.17777731907057        1.89220231263221       -0.61297715395493
H            8.95857539833362        1.79484131504872        0.97263176434028
H            9.48494200379059        1.17371499695950       -0.62120194803064
H           10.27698197722767        0.61094505831352        0.86557010138702
H            7.08534571565033       -4.17939291100752        1.54970102961070
H            5.50225687608474       -3.38050991100922        1.73588646097223
H            6.04968207130383       -3.92785333127915        0.12428948660835
H            4.53833814199472       -2.18319079528721       -0.02381154932325
H           -0.48487929636576       -1.73497908454214       -1.75557247922372
H           -1.19786583057814       -1.29653639676226       -0.18957080079043
H            0.31745466420949       -2.22171921134226       -0.24127882006759
H           -4.66781176818030        2.95537815259276       -0.13913975803125
H           -3.71300993223206        2.92799581233821        2.74447334933843
H           -4.86600932725652        1.78567200608227        2.04301934685085
H           -5.29459697168208        3.49374634737420        2.17885055560861
H           -2.57415006741588        4.66609257079976        1.25514795857226
H           -3.04468275725396        4.79292830110586       -0.44678779575852
H           -4.19979122733739        5.19156106884088        0.81856757213603
H           -0.58561179060373        2.77256186231513        2.66943521656340
