72
 energy: 97.400420027827 xtb: 6.6.1 (8d0f1dd)
N           -1.43504077267079        2.86892659721974        2.14284515107725
C           -1.57640217733148        2.07096145334811        1.18612978610676
C           -2.78323807384540        2.01624260588588        0.28928548545615
C           -3.41559738292088        0.64110709505869        0.38770964592718
C           -4.38569299712611        0.24706166555887       -0.53693631744408
C           -4.98984984554382       -0.99449730595885       -0.46203644890983
O           -5.93754687475527       -1.45802103914497       -1.32013239817051
C           -6.41075964498027       -0.60983643500710       -2.33576366357319
C           -4.62654685587109       -1.88966372167315        0.57098669905410
O           -5.27234931204746       -3.08575498837429        0.56203350572114
C           -5.01158340519054       -3.99997456652795        1.59710258662061
C           -3.67631834667639       -1.49152060791501        1.49298783280052
C           -3.07715528946049       -0.23969820228875        1.39833352353878
C           -2.24966374473858        2.26285548404568       -1.14816338299319
C           -1.49937886922516        1.08502916581593       -1.81130353657457
C           -0.16639296368713        0.77200934584679       -1.22319572668622
N            0.28785706108303       -0.43153719454635       -0.90463727185694
C            1.73971676585963       -0.64258996797117       -0.60966980904595
C            2.42771677113817       -1.27175004768840       -1.76009394137324
C            4.88773438318007        0.19212671718219       -0.71321105555197
C            5.68332568372226        1.29813734524616       -0.78729210065000
C            6.99657944254234        1.23474658203499       -0.31685418954134
C            7.49421788364191        0.05787429115111        0.20399057167166
O            8.77152632049687       -0.13773842382933        0.66674221482639
C            9.70051005359533        0.90119880206070        0.59619010170789
C            6.65906341375267       -1.06825116774739        0.30494625321725
O            7.23002145397601       -2.17591157058764        0.86415581722463
C            6.45701480752134       -3.34083048037141        0.97511391516369
C            5.36121202850191       -0.98338480506335       -0.16191701271520
C           -0.57037325390115       -1.58803776246652       -0.89329315953828
C           -3.86815308971702        3.07285323124852        0.65169306609162
C           -4.44074030855995        2.83142895734329        2.04716338793786
C           -3.36303402725052        4.50998566310800        0.54772006585824
H           -4.67818875540300        0.92575948952412       -1.32041649467862
H           -6.86019042474074        0.29918197028912       -1.92327702892625
H           -7.17476799565231       -1.18097662376011       -2.85889337457002
H           -5.61683542933899       -0.33777955300058       -3.03951416619975
H           -5.26095633363128       -3.58099721383680        2.57759019656043
H           -5.65386782251113       -4.85717996727947        1.40052368154419
H           -3.96598986171839       -4.32621769639170        1.59676658587400
H           -3.39495503979678       -2.14378344219709        2.30431700447577
H           -2.36087904090861        0.04976115597301        2.15142711658961
H           -3.09747666326459        2.51286941331627       -1.79339331761304
H           -1.59022536991339        3.13179614098327       -1.12332409485973
H           -2.14037681787722        0.20311436305946       -1.79223841513426
H           -1.34288311931260        1.37700341199770       -2.86225814329945
H           -0.78823930871754        1.37397328655561        0.87423039117482
H            0.56091498249653        1.57875790210325       -1.19433151415535
H            1.80807958883981       -1.27191779409227        0.28214421054281
H            2.08839569393452        0.34155542820755       -0.31967265719534
H            2.53211864965206       -0.66074618463518       -2.64740417509382
H            2.30846176035796       -2.34793084476947       -1.92890007777114
H            5.31651286276949        2.21976988145489       -1.19707852841485
H            7.61525384402814        2.11606331548272       -0.37253341787765
H            9.40205751118477        1.76705678949494        1.19638882575276
H            9.89141711849995        1.21721384098067       -0.43497419709188
H           10.61609399997264        0.48485836021449        1.01400955132128
H            7.12079472054374       -4.09223208606014        1.39879850568582
H            5.59874999822872       -3.19719547219294        1.64333747371955
H            6.09928414309287       -3.68883914992398       -0.00013385453688
H            4.73821547397281       -1.84923673243983       -0.06121763813773
H           -0.87629439568119       -1.86504006637656       -1.89941904792165
H           -1.46801695201072       -1.37343384349648       -0.30449699361652
H           -0.03188444210110       -2.41712116641907       -0.42964673765945
H           -4.68489370610174        2.94497668182989       -0.07119488130560
H           -3.66072272107290        2.96392548927334        2.78963227649194
H           -4.84952077459797        1.82701707316759        2.13213155778774
H           -5.24008090650060        3.54200667590830        2.24583461971394
H           -2.52841661688115        4.65741083206800        1.22366244377180
H           -3.05518890929278        4.76088865227723       -0.46285010553092
H           -4.16143231729569        5.19272165649171        0.83185315504032
H           -0.55413992506409        2.81060145178427        2.64974885210881
