72
 energy: 85.296101758454 xtb: 6.6.1 (8d0f1dd)
N           -1.47698077218226        2.86916503471240        2.18396813409059
C           -1.58596245929783        2.09787948793324        1.20033613997264
C           -2.77975200005372        2.03196205322352        0.28523067380379
C           -3.39415677253946        0.64660397829509        0.37347546916283
C           -4.36735995542116        0.24802002079872       -0.54474298875196
C           -4.95899128656293       -1.00024790666284       -0.47532791763282
O           -5.91254751485859       -1.46946559200907       -1.33221514852376
C           -6.40716399750012       -0.61083935399848       -2.32707595867340
C           -4.57503726477445       -1.90034467008589        0.54252952864594
O           -5.20926682149874       -3.10937687855662        0.52508058266240
C           -4.93011190403611       -4.02349828069998        1.55232934489949
C           -3.61647586034878       -1.50240716997344        1.45689279444791
C           -3.03329412967909       -0.24297834442107        1.36868773060812
C           -2.24418977903059        2.27665497619801       -1.15662636465931
C           -1.44179577838002        1.11253789344916       -1.78634017254397
C           -0.11596925984266        0.85579127760783       -1.16427481137174
N            0.39179039913801       -0.36516000111066       -0.83796403064480
C            1.81729290834411       -0.50914530832294       -0.50275814572379
C            2.64498292308283       -1.07071186186154       -1.63791819833188
C            4.75196127146981       -0.00091118775021       -0.81171384066973
C            5.52009296109782        1.14565532014164       -0.86952691320198
C            6.83226546561482        1.14107342405940       -0.38003392780182
C            7.37390495812013       -0.00325438598771        0.17009473131376
O            8.65489783124584       -0.15705623693633        0.63386854752399
C            9.55270072035608        0.90836138949447        0.53064330756854
C            6.56485762894165       -1.14320618590705        0.30048659622019
O            7.16686712370326       -2.22343798855956        0.88590554291421
C            6.42389295240469       -3.40456563635025        1.01914040095097
C            5.27058436789817       -1.11531458289712       -0.17950520887543
C           -0.44397827873203       -1.53365537337499       -0.82504022558193
C           -3.87794055563759        3.07651140436942        0.63577003701556
C           -4.45946008227538        2.82029736614264        2.02419128682610
C           -3.37384745509306        4.51421718895731        0.54748284800969
H           -4.67254041632313        0.92897500838243       -1.32160397840466
H           -6.85666898561019        0.28984749127574       -1.89525907753075
H           -7.17572691056082       -1.18078925583790       -2.84515626785833
H           -5.62691098611811       -0.32116552574384       -3.03919576733102
H           -5.17148070901110       -3.61175025438354        2.53850102530773
H           -5.56692021336235       -4.88633992231112        1.36058557638089
H           -3.88150377133513       -4.34151341240575        1.54112906305447
H           -3.31749082424219       -2.16078164018971        2.25688378084287
H           -2.31125958241225        0.04860026326147        2.11498967580893
H           -3.08941537327549        2.48411242968700       -1.81776319068408
H           -1.60792518801458        3.16316031872245       -1.14043094084013
H           -2.05687151409933        0.21347124092352       -1.76957754859662
H           -1.25937466634085        1.38336271078392       -2.83828607927098
H           -0.76729149013659        1.45361644357953        0.85268797210922
H            0.60441441959550        1.67281410079320       -1.17879024305762
H            1.91507901076374       -1.15127612817391        0.38407397120812
H            2.13296155669929        0.48936998189232       -0.21113396693773
H            2.62298421264563       -0.48981648062757       -2.54450774985041
H            2.53923338620997       -2.16939178917289       -1.83070782547810
H            5.14771628004229        2.06051867693502       -1.28957968999461
H            7.43644215529371        2.03210437270509       -0.45888930915945
H            9.22625988836648        1.78155087982169        1.10544602037192
H            9.73006793837181        1.19982255424163       -0.51046408688865
H           10.48538440808457        0.54156694091072        0.95533822642266
H            7.10567768325412       -4.12810903879815        1.46065396824496
H            5.55946152701946       -3.26891564862774        1.68027584984593
H            6.07991621590761       -3.78314706129854        0.05014382876065
H            4.66626133819743       -1.98903829770597       -0.04512387111292
H           -0.71836669785320       -1.82492862085494       -1.83929697101656
H           -1.36159570333590       -1.34648206770176       -0.25780934830567
H            0.10498272532673       -2.34810931655889       -0.34663020253070
H           -4.68407247112281        2.95100690461099       -0.09857988070860
H           -3.67966907204585        2.95113624402203        2.76722174551983
H           -4.85808182349902        1.81094091111573        2.09708902524400
H           -5.26506283398253        3.52314651044918        2.22225925380017
H           -2.54810812913169        4.65425645479341        1.23531942174459
H           -3.05057429013664        4.77275225202653       -0.45698710189527
H           -4.17645274750076        5.19453326100199        0.82619150304591
H           -0.58683727196587        2.81311036013552        2.67649355964279
