72
 energy: 97.784319025369 xtb: 6.6.1 (8d0f1dd)
N           -1.42483552129612        2.86981548232893        2.13188703068749
C           -1.57076294175301        2.06277162329476        1.18273349173119
C           -2.78253468473367        2.01163241985665        0.29128172630073
C           -3.41939701813708        0.63793554559399        0.38997705177273
C           -4.38982050020376        0.24576400759601       -0.53540763543261
C           -4.99839371165292       -0.99330878757436       -0.45803248665288
O           -5.94530934046348       -1.45620227542896       -1.31697318821043
C           -6.41191369809403       -0.60991677450295       -2.33774078387167
C           -4.64026212815639       -1.88694405360464        0.57858385682303
O           -5.28955480546322       -3.08101172752305        0.57121070788276
C           -5.03220544876225       -3.99447251050962        1.60825423647065
C           -3.69169536346844       -1.48887803528884        1.50210145015482
C           -3.08794072119625       -0.23951915531247        1.40550438432489
C           -2.25017130214253        2.25958633367020       -1.14658176911504
C           -1.51454980056517        1.07847491422115       -1.82041445013475
C           -0.18263438623632        0.75283967896071       -1.23755042086448
N            0.25785896683562       -0.44845780179657       -0.91424938424214
C            1.71566800970036       -0.67406073581078       -0.63423147296088
C            2.37863884419834       -1.31441604866751       -1.78574293751708
C            4.91825853179943        0.23576232004030       -0.68930106043776
C            5.72208760268722        1.33324830074119       -0.76668451338254
C            7.03625815419625        1.25695454476287       -0.30145282101902
C            7.52414626193395        0.07319909249887        0.21320788773691
O            8.80062833687413       -0.13437463654166        0.67476482818983
C            9.73753333932633        0.89882847957839        0.61288874968612
C            6.68184571428627       -1.04908460748007        0.30702909028919
O            7.24694026122039       -2.16470502415239        0.85812053079218
C            6.46589612841472       -3.32512379325714        0.96398208210850
C            5.38294540654130       -0.95084171260222       -0.15621011164924
C           -0.60444965293597       -1.60066669077398       -0.90941881562113
C           -3.86471349396128        3.07140376031622        0.65547733000659
C           -4.43590250678887        2.83395112346525        2.05274188958430
C           -3.36014120047808        4.50905956981993        0.54740531888941
H           -4.67941012749496        0.92488880039571       -1.31968900383978
H           -6.86121608067732        0.30142386104856       -1.93015238885903
H           -7.17436777829336       -1.18181208063551       -2.86223341790980
H           -5.61435715095565       -0.34212927177383       -3.03932914691997
H           -5.28323616257755       -3.57342599708788        2.58739611398173
H           -5.67575189967872       -4.85033000309837        1.41046251094177
H           -3.98716066052297       -4.32240479737193        1.61066996031655
H           -3.41433471454719       -2.13959261939521        2.31626242597035
H           -2.37321550538511        0.04981117096531        2.16007227665804
H           -3.09815135803368        2.52040264873783       -1.78725131667334
H           -1.58494898659976        3.12453300032264       -1.11924744302082
H           -2.16201053671216        0.20127157510425       -1.79937358027397
H           -1.36148156690345        1.37503996650479       -2.87096120075063
H           -0.79212481908427        1.35372318490738        0.87172648096469
H            0.54391276720808        1.55789852500225       -1.19704501796486
H            1.77945201119931       -1.30147338261799        0.25838596543227
H            2.08037836410485        0.30557642052035       -0.35071825339185
H            2.50312867677253       -0.70195858233810       -2.67094942775265
H            2.25277242702676       -2.38712741020645       -1.95067986503909
H            5.36098471771820        2.25723531115869       -1.17731699654682
H            7.66045306968906        2.13500296940520       -0.35506609094718
H            9.44613860648891        1.76300681159853        1.21967043016315
H            9.93241424756776        1.22135868104268       -0.41573920567067
H           10.64872594982706        0.47047253646991        1.02898528629856
H            7.12549830010314       -4.08330609147387        1.38318613362104
H            5.60915906405089       -3.17890603028656        1.63393637783952
H            6.10442305819024       -3.66525639257290       -0.01295444626151
H            4.75273495238019       -1.81272387127806       -0.06636570877153
H           -0.91502613688362       -1.87376100944813       -1.91551899657217
H           -1.49720240092560       -1.38216359497946       -0.31516376796507
H           -0.06733102889542       -2.43316342518064       -0.45137037530730
H           -4.68402357558041        2.94275438061730       -0.06465428449696
H           -3.65589460814658        2.96691271698715        2.79517756195577
H           -4.84694216503687        1.83061748293238        2.14080282214469
H           -5.23384304073471        3.54664646461601        2.25156172812208
H           -2.52341667932035        4.65849215833745        1.22040695593664
H           -3.05672952018918        4.75873041126951       -0.46504336171474
H           -4.15773391366648        5.19212459544567        0.83289292326263
H           -0.54506354813193        2.81006748872011        2.64023448671360
