72
 energy: 95.881532451867 xtb: 6.6.1 (8d0f1dd)
N           -1.42829937527663        2.83364405288682        2.14342868448085
C           -1.56251821121691        2.04701012849510        1.17849549924847
C           -2.78319864312498        2.00231115616358        0.29820739692535
C           -3.43743328015733        0.63314924639875        0.40521714127836
C           -4.40433580975540        0.24264835656025       -0.52542218290978
C           -5.03029418050216       -0.98644997160886       -0.44028262708121
O           -5.97395141339018       -1.45043193676088       -1.30614489281537
C           -6.41784262278606       -0.61273930767470       -2.34250813982201
C           -4.69344424108313       -1.87177046757793        0.60980556364640
O           -5.35448345184718       -3.06157997647817        0.60544256544438
C           -5.11333957708173       -3.96951273815677        1.65060963173954
C           -3.75114028314860       -1.47568538158514        1.54006054058441
C           -3.12962613647714       -0.23598079926180        1.43573845536018
C           -2.25691574779905        2.25076103999963       -1.14315822731168
C           -1.56921489638172        1.05115751096510       -1.82393278317181
C           -0.25190524093109        0.69886202857211       -1.23604972638649
N            0.14368306066148       -0.49311029339679       -0.86971949667912
C            1.66435990788634       -0.79917437214803       -0.70541675764784
C            2.18557233167234       -1.45447555142692       -1.86576905454427
C            5.03821487053839        0.40137118286848       -0.60197824997812
C            5.87546343699991        1.46822902141370       -0.68910501445330
C            7.19500742508849        1.33578358641587       -0.24938388695881
C            7.64179824052415        0.12702745741875        0.24602976234383
O            8.91271503132666       -0.12596871267862        0.71346622527787
C            9.88200924219347        0.88406853448111        0.67958440276965
C            6.76452059089631       -0.97524478104272        0.31164926588511
O            7.30886820328434       -2.11949088948550        0.82955634155985
C            6.49910582428276       -3.26019484849806        0.92173641804359
C            5.45523860101275       -0.82146048156074       -0.12551375807104
C           -0.73554270954724       -1.63650325103286       -0.95544830598524
C           -3.85617104808853        3.06952233363985        0.66537609466092
C           -4.41721382428250        2.84333210859452        2.07003288550888
C           -3.35286107465849        4.50700059989955        0.54602855420082
H           -4.67586848138701        0.92216453242010       -1.31741054967271
H           -6.86735342087509        0.30841981563171       -1.95679560681946
H           -7.17686433140446       -1.18643533785698       -2.87245479799247
H           -5.60946620896419       -0.36112209498752       -3.03791878125551
H           -5.37109494829688       -3.54231406316585        2.62530133354322
H           -5.76165696457298       -4.82089146175642        1.44946375388852
H           -4.07098882623192       -4.30581519572896        1.66533948302633
H           -3.48841482698434       -2.12028839599158        2.36338621209651
H           -2.41698694540917        0.05074212310141        2.19359245532262
H           -3.09900974572622        2.54293074503638       -1.77097064172757
H           -1.56439855560630        3.09482054093396       -1.11423413683863
H           -2.24668145448377        0.19835681119488       -1.82138372244457
H           -1.38737803144931        1.35114436657302       -2.85884104178707
H           -0.78819141048599        1.34195831310045        0.84013444197604
H            0.47289083688440        1.49631341255938       -1.15584282354289
H            1.67651472772970       -1.41899154758115        0.18707072627122
H            2.10076249829035        0.17399653508907       -0.48538246867881
H            2.38257476915584       -0.85522629616583       -2.74353449473699
H            2.01504230646513       -2.50841478024180       -2.01665154463775
H            5.53252525521204        2.40651237155409       -1.09244390953582
H            7.84962288467591        2.19321024535552       -0.30214433057494
H            9.61996978755086        1.74161983683215        1.30956759867146
H           10.09234202621926        1.23005713041245       -0.33883355048269
H           10.78089885380109        0.41926031752904        1.08624369271849
H            7.13960566371718       -4.04288096510396        1.32562826573560
H            5.65045172921474       -3.10534486072944        1.59925054949168
H            6.12731118749318       -3.56987604243775       -0.06067488666327
H            4.77285227069655       -1.65386779385740       -0.08443086483886
H           -1.06274644108287       -1.88102634551152       -1.97022489367089
H           -1.61343351544232       -1.42760539910068       -0.34385700989043
H           -0.20268426710846       -2.49101046178212       -0.54190346822531
H           -4.67889146572737        2.93844542653978       -0.04757827119477
H           -3.63420939683602        2.97585669080297        2.80908260319955
H           -4.83384492804389        1.84430206120534        2.17128838644133
H           -5.20653237202290        3.56447188029356        2.26860913756787
H           -2.50876609013617        4.66321744335740        1.21010612702252
H           -3.05885953902786        4.74960165544181       -0.47179152631330
H           -4.14837831319672        5.18989381907605        0.83506024724828
H           -0.53546193867425        2.79101135510946        2.63090515715527
