72
 energy: -2.822611938914 xtb: 6.6.1 (8d0f1dd)
N           -1.49184025140410        2.80174567501281        2.22996940894179
C           -1.55914895545241        2.13641468703452        1.16417625834153
C           -2.75286872035241        2.05503728510571        0.25435415535885
C           -3.33252450025583        0.64953561571676        0.33584379495150
C           -4.31706609491173        0.24689217227998       -0.56882218709769
C           -4.87372615575139       -1.01674550914066       -0.51741859687145
O           -5.84043806769515       -1.48581255264617       -1.35707205043350
C           -6.39838247317018       -0.60996466640549       -2.30239833589362
C           -4.43891984548378       -1.93246053580228        0.46586362855162
O           -5.04230582404112       -3.15512850771227        0.43600744161865
C           -4.72532959109885       -4.08277416080005        1.44118139093982
C           -3.46723287782583       -1.53272480170453        1.36299487193526
C           -2.92090699557027       -0.25541460966165        1.29697438174399
C           -2.20608648286055        2.29631138145026       -1.17946106875831
C           -1.29985702609813        1.16693410541531       -1.69998713416763
C           -0.02460363633581        1.07395995191668       -0.94859043381123
N            0.59445507440500       -0.12641445361492       -0.62633892662053
C            1.97480692505310       -0.14206429569562       -0.24148926758591
C            2.97075826144243       -0.63720053391916       -1.35158166505561
C            4.41129683719772       -0.35575219378274       -0.86585240505719
C            5.15287385602908        0.81587880381887       -1.00596200832159
C            6.47016098933230        0.90686492972872       -0.54933368936997
C            7.07878242150517       -0.16076573198480        0.08396073533764
O            8.35920250836855       -0.20044005717300        0.54954489002675
C            9.17988638747551        0.92367899404124        0.36697167353897
C            6.33002843499624       -1.34005160694192        0.28550547316960
O            6.99874895955668       -2.34510508637060        0.92044939777049
C            6.33963912841093       -3.56717349068596        1.12167438789284
C            5.02900176327693       -1.40574288482282       -0.17166681001273
C           -0.13600189216774       -1.36025841486639       -0.66624046068370
C           -3.87302163337491        3.07643412339304        0.59412266533132
C           -4.48872763409949        2.78613316976358        1.96118632316534
C           -3.39087760471342        4.52538904800855        0.54931266442802
H           -4.65967324939744        0.94082804247905       -1.31827318345920
H           -6.85051041545163        0.26631142473116       -1.82530207506568
H           -7.17427782866462       -1.18452271725907       -2.80587477965706
H           -5.65769476326042       -0.28061351317120       -3.03937212517107
H           -4.94954591677076       -3.69067786024458        2.43914852836949
H           -5.35513607497665       -4.94946102337603        1.24542739409447
H           -3.67294109686053       -4.38437067062398        1.39841615200284
H           -3.12748432807042       -2.20509103194322        2.13504906854744
H           -2.18413011393723        0.02990033440265        2.03130938116176
H           -3.04228486097441        2.40815799877335       -1.87145762652087
H           -1.64118261693682        3.22978532360898       -1.18882371849803
H           -1.85734028396319        0.23081255009334       -1.66346246107024
H           -1.06275379225857        1.38190685597277       -2.75064103721394
H           -0.70302734123073        1.60576021775295        0.68860463577764
H            0.63901996934301        1.92562094015471       -1.00810106910346
H            2.08158265022518       -0.77671755858166        0.64698641653498
H            2.26450353917932        0.87463296578575        0.03275568759046
H            2.74168329057368       -0.06175114384131       -2.25104149387511
H            2.73819214630618       -1.69975880162491       -1.57824825479418
H            4.73321735383300        1.67859640879108       -1.50055961847502
H            7.03211227562455        1.81570734220338       -0.71485326680330
H            8.78377968110592        1.80443253795288        0.88311457865793
H            9.32237828350577        1.15498551940867       -0.69382343018158
H           10.14038678790225        0.65762581009168        0.80494987406728
H            7.06820319467907       -4.21281137421702        1.60882138210225
H            5.46485058527478       -3.45311451225827        1.77154426937094
H            6.03137461651811       -4.02224864349687        0.17401656602160
H            4.46007750735279       -2.30702617816044       -0.01442611700344
H           -0.33342173750368       -1.67281153767456       -1.69714260123924
H           -1.09418272377101       -1.26563415872373       -0.14388661504115
H            0.45668176581068       -2.12714856405134       -0.17150223744881
H           -4.65578636978913        2.95762221941859       -0.16567135969026
H           -3.73848152427229        2.91295243001193        2.73455075985861
H           -4.87065843554927        1.76906648862631        2.00595314286854
H           -5.31149982726447        3.47275466914777        2.14802994264786
H           -2.58980325522567        4.67738393579845        1.26585031924442
H           -3.04143728450653        4.80620486386275       -0.44118759047463
H           -4.21415018927762        5.18703946036693        0.81196339354027
H           -0.58937494462164        2.76488782485458        2.70013086988382
