72
 energy: 26.890434436876 xtb: 6.6.1 (8d0f1dd)
N           -1.50083139349871        2.85681142060664        2.21499087139087
C           -1.56760629963520        2.12581781160139        1.18942255463055
C           -2.76321047523992        2.04612964803935        0.27304871030729
C           -3.36276971039725        0.65081606680908        0.35534650743230
C           -4.34201699404797        0.24843001179052       -0.55530798004061
C           -4.91599708947126       -1.00797029804956       -0.49490428894217
O           -5.87644997823236       -1.47961831185050       -1.34479078235905
C           -6.40267187262066       -0.61172127020103       -2.31470510418162
C           -4.50736128448148       -1.91623930505699        0.50447333216070
O           -5.12655619544944       -3.13475318075188        0.47958972530675
C           -4.82759345090240       -4.05358131830762        1.49692732732223
C           -3.54267200233236       -1.51680987977020        1.41000031955245
C           -2.97808067454990       -0.24818214340918        1.33282253802984
C           -2.22584357483858        2.28804288478330       -1.16737895238857
C           -1.36947528934055        1.14223591678172       -1.74860584708973
C           -0.07327085424399        0.98041564094498       -1.05289576464565
N            0.51366241944632       -0.25828103887087       -0.73613571623104
C            1.90817863451785       -0.31999113734804       -0.37225263011413
C            2.93238710840650       -0.79154726713414       -1.47320738256528
C            4.51652555977797       -0.22622372540556       -0.89789205658045
C            5.29867028210552        0.95353738604405       -0.95198911692740
C            6.62076689029422        1.01220446993739       -0.46535410211420
C            7.21937734101856       -0.08437486740083        0.12673506014342
O            8.50020865188134       -0.18137794402673        0.58737203379460
C            9.36381160534346        0.91589802238186        0.44780893182663
C            6.43488398892495       -1.24076889430115        0.29218776106633
O            7.07659552350352       -2.28190524507224        0.90274968841027
C            6.38051688908658       -3.48754186120613        1.07120344578406
C            5.13654424981834       -1.26425696633338       -0.18711527122539
C           -0.28369554723752       -1.44979701306977       -0.74477017684051
C           -3.87559627227771        3.07573352767000        0.61525480112118
C           -4.47549288178550        2.80361773001110        1.99299921606015
C           -3.38339085078114        4.52064593437266        0.54914687302236
H           -4.66604432112679        0.93465571904868       -1.32015197503463
H           -6.85344016063028        0.27770394815418       -1.86018877422445
H           -7.17556194393698       -1.18320092667409       -2.82579523515653
H           -5.64179579717292       -0.30096333708091       -3.03902758195851
H           -5.06003186822798       -3.65073008273643        2.48910831294739
H           -5.46021437039865       -4.91923241798048        1.30423942764534
H           -3.77643382805414       -4.36211195692536        1.47040575253470
H           -3.22306484392880       -2.18315397707727        2.19594763149721
H           -2.24854059327115        0.03966063384745        2.07256468573810
H           -3.06809330908845        2.44712759239898       -1.84443245544918
H           -1.62344795101402        3.19836758989507       -1.16358623061993
H           -1.95253037123482        0.22088608201351       -1.72105391766708
H           -1.16038084062777        1.38443131594824       -2.80218389530446
H           -0.73272155579628        1.53506009668569        0.77440351125112
H            0.62676436874496        1.80705965049188       -1.11286098734389
H            2.00825873971180       -0.96365906989705        0.51444575739501
H            2.19588287133458        0.69005547565391       -0.08396444815038
H            2.69555061259779       -0.26958759013329       -2.39738091759323
H            2.77849086887485       -1.90816718588482       -1.68964698703648
H            4.93050985792620        1.86552650057154       -1.39776643165928
H            7.21527815546063        1.91195355234692       -0.58760272587804
H            9.00290546562923        1.79300452048286        0.99473811095498
H            9.52568874659334        1.17826135394747       -0.60295543811728
H           10.31151548032464        0.60011512407160        0.88048158045930
H            7.08869709655506       -4.17137360298244        1.53476568687728
H            5.51138143131955       -3.36223079316144        1.72675191602172
H            6.05439706871794       -3.90385447825511        0.11173683562597
H            4.55886448445811       -2.15379865408900       -0.02628492634703
H           -0.52366820678759       -1.75148755688695       -1.76927320876409
H           -1.22447062307686       -1.30468097899158       -0.20040663384666
H            0.28200969215898       -2.24417643462808       -0.25778538926194
H           -4.67066193077062        2.95436538022071       -0.13231521378012
H           -3.70683622655929        2.93199197914173        2.74751375492163
H           -4.86483774800665        1.78971398852599        2.05239516871996
H           -5.28982260802556        3.49883931618148        2.18647542554099
H           -2.57020921352508        4.66347641557986        1.25208191752536
H           -3.04577749729048        4.78962442299477       -0.44824345083910
H           -4.19611971988372        5.19262590260448        0.82032357470396
H           -0.58849925347230        2.78212896985868        2.66112097102649
