25
 energy: 45.855913274091 xtb: 6.6.1 (8d0f1dd)
C            2.98092598790145        1.99413067851506        0.32729730583394
N            2.37956019276290       -0.13947254831853       -0.18844156531401
C            2.63346808072306       -1.38153276920680        0.13212804898888
N            1.48481360225850       -2.15029146376227        0.20971353168002
C            0.44113845271164       -1.32058870367019       -0.04704731680867
C            1.02451619317133       -0.07723661006505       -0.26775298480354
C            0.25999145486062        1.08428970994334       -0.54642583762363
O            0.63904984559159        2.09974887585186       -1.08342637062381
N           -1.07396453695607        0.88868288783474       -0.11909495066615
C           -1.86657343356617        2.10328235853900        0.03793942954546
C           -1.71082865242268       -0.32091097112869       -0.04587912249745
O           -2.91479495612556       -0.37514508215596        0.09384379432580
N           -0.92335935916824       -1.49100288692904       -0.08708689805587
C           -1.73295647661889       -2.70160567838934       -0.10788199942603
H            3.82579268126686        2.02429093129661        0.96408449487353
H            3.25987336337576        2.25361524323048       -0.70415742064086
H            2.01483331284362        2.26757489693003        0.62794173164876
H            3.60020112800316       -1.83034938868050        0.29108368674229
H           -1.23171470855073        2.95684937403174       -0.05133695683893
H           -2.61792049103168        2.20758241980276       -0.70311931977397
H           -2.27920334503016        2.16147484639199        1.03923068619337
H           -1.61136941363390       -3.29430827841038        0.80434066427142
H           -1.55540763515042       -3.33370249505678       -0.97954480045876
H           -2.76727311252021       -2.31786909508323       -0.18727483055306
H            1.50840959651797       -3.15000361052532        0.30768062558234
