25
 energy: 43.992893415428 xtb: 6.6.1 (8d0f1dd)
C            2.96229565372320        2.11261492293947        0.38515855382214
N            2.37030817444799       -0.18270944663797       -0.23835132458367
C            2.60669815425441       -1.41479775064555        0.10085657501209
N            1.45090020059771       -2.16675150646501        0.21837438502417
C            0.42178149821079       -1.33070125884391       -0.07291145286960
C            1.01872150048083       -0.10028582382135       -0.32786258882705
C            0.26362566182234        1.06795404191608       -0.63263447942844
O            0.63764367230405        2.05267126537395       -1.22525399102719
N           -1.05698499641290        0.88147662263174       -0.14985187372008
C           -1.83214310250162        2.09717706947518        0.05781663525799
C           -1.70813244597792       -0.31911985616324       -0.04101531200862
O           -2.90711184198014       -0.36270648243360        0.13713206974016
N           -0.93991545805228       -1.50329817157733       -0.10308132243809
C           -1.76791267979605       -2.70332072371970       -0.12065820050392
H            3.84861055601224        1.99276767072235        0.95019373207550
H            3.11011489626402        2.31179099091004       -0.66659072269623
H            2.00831354618511        2.27122654077057        0.77725197426472
H            3.57491313152481       -1.83442827024731        0.28951538930549
H           -1.18969956987273        2.94329397090688       -0.05396012842357
H           -2.62740469134365        2.21648188507108       -0.63497752353219
H           -2.20359206279741        2.14413838174858        1.08118652557749
H           -1.66812002629464       -3.29601201306847        0.79647376898514
H           -1.60515428856518       -3.34847495869910       -0.98586795640681
H           -2.79238094465895       -2.29616909381058       -0.21859266543653
H            1.44509162564442       -3.16085240262297        0.34954776859645
