25
 energy: 30.946704796486 xtb: 6.6.1 (8d0f1dd)
C            3.74952672634841        3.12231668203875        0.17495355783362
N            2.31112735744774       -0.70081100702674       -0.03400576891764
C            2.34093750482318       -1.99620674557696       -0.00664812432183
N            1.08276224703857       -2.55877814053650        0.00192493460663
C            0.20875971464754       -1.51807571299586       -0.02213008498902
C            0.98664506140371       -0.36524573157393       -0.03297189648753
C            0.33047949871138        0.91680505852266       -0.03466521286503
O            0.85121543862176        2.00560297769927       -0.03219695714351
N           -1.07214115401595        0.80863155287488       -0.03527432214794
C           -1.83794823174253        2.05129300768327       -0.03086740188963
C           -1.84230259465813       -0.33274266031023       -0.05874314924448
O           -3.05272307310542       -0.29611570402074       -0.08283436317758
N           -1.15283224149966       -1.54591763730579       -0.05330768434995
C           -1.91199620757873       -2.78460588916402       -0.07741986563051
H            4.19705212555454        3.30592146851629        1.12413692129314
H            4.30751068348170        3.13792878614928       -0.73182949279340
H            2.73289787782578        2.83493081033459        0.12167508669859
H            3.24322183974305       -2.57649241383121        0.01396422050790
H           -1.14541807470209        2.88731401259097       -0.01184455114056
H           -2.45706979206285        2.11119554023872       -0.92288189129412
H           -2.50006515535375        2.08300038980576        0.83426173182704
H           -1.67682030130591       -3.37137503168919        0.81184573860974
H           -1.65121334623141       -3.34993295710380       -0.97335687881296
H           -2.97215851667250       -2.53959494104333       -0.08986004798361
H            0.88866847891983       -3.54787309026804        0.00068003081302
