25
 energy: 42.491944762068 xtb: 6.6.1 (8d0f1dd)
C            3.28286185619096        1.98879669403339        0.12912578143816
N            2.42239212763545       -0.20608591892714        0.04041461946731
C            2.58770497906269       -1.49890265764437        0.06822693004508
N            1.40376707985443       -2.20660161184350        0.02641051187144
C            0.41176005848601       -1.26847986191115       -0.01470458044229
C            1.05174534470291       -0.02456362899829       -0.00261612688663
C            0.24181264579695        1.17604449615335       -0.04875864105007
O            0.59279210254026        2.32713832733703       -0.12333566396866
N           -1.14409872906409        0.91537136872729       -0.04554958599352
C           -2.02448356402439        2.08417821298186       -0.03902904531077
C           -1.76501672056379       -0.29642639985844       -0.06275693753900
O           -2.97376999353224       -0.37708243492976       -0.08248534769409
N           -0.94940339942012       -1.43865075659068       -0.05574474354110
C           -1.68298244152892       -2.68616197501966       -0.07520589769883
H            3.73250732471152        2.09766308025516        1.06511255584974
H            3.88439742627480        1.95528862269102       -0.73297027439966
H            2.29098044131196        2.35225249205889        0.05014620780107
H            3.52715404620545       -2.03533633829337        0.05893784619016
H           -1.39783186954753        2.96769389701868       -0.02322301097602
H           -2.64566219321285        2.10498520454068       -0.93145498292745
H           -2.64288376109432        2.08196085893245        0.85323996136722
H           -1.50156631392476       -3.28527168731680        0.81745022682062
H           -1.47342363919940       -3.27023769421390       -0.97136106138285
H           -2.74055728623219       -2.39484052624338       -0.08945323739070
H            1.29733930451300       -3.21062400558902        0.03165431197600
