25
 energy: 41.001426663599 xtb: 6.6.1 (8d0f1dd)
C            3.45634113973846        2.44229193062274        0.16453338582117
N            2.38213539192294       -0.41685851681245        0.02083678399354
C            2.48149756500879       -1.70750313822668        0.02756235981576
N            1.28209943098659       -2.37655636995806        0.01085324821028
C            0.33227212662008       -1.39211251802073       -0.02526291780974
C            1.03602094356158       -0.18191664592338       -0.02387659632522
C            0.27754549260490        1.04753822283059       -0.07372306239677
O            0.67727557918517        2.17919562318038       -0.13701777956104
N           -1.09382045478382        0.84947823913045       -0.05281668965207
C           -1.90728233667012        2.07175154697481       -0.03141163202587
C           -1.78326643842319       -0.33393195057883       -0.06391438493018
O           -2.99338343669742       -0.32564204093196       -0.08091287546392
N           -1.03009137831879       -1.51623170519527       -0.06167075994906
C           -1.82654765885509       -2.73194612622705       -0.08383217122317
H            3.92356581429697        2.64513864067830        1.06610069498770
H            3.88484275219281        2.55783496797354       -0.77398722750400
H            2.41450974742684        2.57873261144984        0.16238440686809
H            3.39796167755912       -2.25061871426759        0.05147826109943
H           -1.22783487808614        2.91387091460094       -0.02284205087988
H           -2.53698276916643        2.13769294507906       -0.91569169878548
H           -2.49866818839554        2.10224308256096        0.87700611729179
H           -1.70049464116375       -3.35147113067008        0.80499112275945
H           -1.67105699200283       -3.33702030587456       -0.97799853018400
H           -2.87409213431198       -2.38993322974287       -0.09806249350136
H            1.15364904177340       -3.37843739446949        0.02891740518928
