25
 energy: 29.926994407305 xtb: 6.6.1 (8d0f1dd)
C            3.83791769168816        3.21094967732921        0.15856989392344
N            2.26903108894143       -0.72681602446171        0.00376833534739
C            2.30811035963304       -2.01664771892224        0.00349066276216
N            1.05331645579423       -2.58626732476680       -0.01934338886899
C            0.17983829832187       -1.54612361784254       -0.03364324555259
C            0.94502281126799       -0.38943316436834       -0.01906149475870
C            0.32395746064455        0.91106575854013       -0.02241469175821
O            0.86801065444373        1.98912831753507       -0.01133295487165
N           -1.08065353682573        0.80969613599688       -0.03900550250692
C           -1.84140652546163        2.05231628156923       -0.03446738064084
C           -1.84722797745286       -0.33357760253737       -0.06106779752355
O           -3.05670293650207       -0.29556869508025       -0.08196916099940
N           -1.17565591869833       -1.55654220469373       -0.05722197440967
C           -1.93594012563923       -2.78724985377465       -0.07986602889768
H            4.25702596520167        3.49384821428340        1.10036302564758
H            4.44936663836910        3.23293705595171       -0.71826333634635
H            2.82055735922336        2.89048300387893        0.09725479784913
H            3.20586822975180       -2.59990609757395        0.01893851655299
H           -1.13495006170398        2.87931453110294       -0.01622387420831
H           -2.46591027918003        2.10757022869114       -0.92550990864224
H           -2.48711022509855        2.08644814646220        0.84250845794523
H           -1.72739214582016       -3.38356173764512        0.81037312354089
H           -1.70225582271613       -3.36605149494666       -0.97545742070888
H           -2.99109465937928       -2.51669831791984       -0.09211911112472
H            0.84049150616946       -3.57028470806363       -0.02126562955560
