25
 energy: 31.957200383553 xtb: 6.6.1 (8d0f1dd)
C            3.69945280960370        3.02698717935941        0.17799545414539
N            2.32279167054933       -0.65881606285060       -0.03256605346227
C            2.36391265741354       -1.95427308716131       -0.00989294147723
N            1.11384358902432       -2.53358337656353        0.00287959071306
C            0.22652853974305       -1.50275719330893       -0.02283718520516
C            0.99862357711142       -0.34125352966916       -0.03564313604482
C            0.33061686058120        0.93524769990132       -0.05127241888258
O            0.83695019158854        2.03295379776568       -0.05562421720720
N           -1.07074943749324        0.81446344052910       -0.04095892913095
C           -1.83427905104065        2.05765540983022       -0.02728241887980
C           -1.83368617080435       -0.33197969754217       -0.06182987975253
O           -3.04490383694388       -0.29019625858153       -0.08283355935565
N           -1.13799396306461       -1.54471075671225       -0.05492066854801
C           -1.91401459868804       -2.77546853793256       -0.07732546871583
H            4.14369155636670        3.21416818941971        1.12358832014197
H            4.21588061180448        3.08272380683940       -0.74671585425467
H            2.67254011490657        2.79337756203501        0.13285877141712
H            3.27033606729774       -2.52771593737335        0.01915735543477
H           -1.14064719474871        2.89018612524152       -0.01216673646755
H           -2.45232004761436        2.12129178574233       -0.91803336135806
H           -2.47785245941286        2.08808483426850        0.84810997845510
H           -1.69683366628235       -3.37245645834628        0.81159780921074
H           -1.67260404904452       -3.35520381802674       -0.97066761104270
H           -2.97601425194219       -2.52528556563761       -0.08941262088418
H            0.93290173039756       -3.52710322313473        0.00798746729509
