25
 energy: -3.215946314378 xtb: 6.6.1 (8d0f1dd)
C            3.29306515115784        1.14993456890200        0.09260081158689
N            2.33333833212677        0.09785500392644        0.03217476872268
C            2.61853874508834       -1.25643144217738        0.02292488742012
N            1.42559937729603       -1.94304909482519       -0.02046858305415
C            0.42125424297831       -1.04411524520384       -0.00680270954112
C            0.93822860891746        0.24597883044410        0.02721573500840
C            0.11560777064335        1.40829626036400        0.02242932429393
O            0.51438856738268        2.57687005674516        0.03395841955032
N           -1.31636825747375        1.10501216203505       -0.01712294213881
C           -2.35244182606241        2.17190751578439       -0.06887133503191
C           -1.81480898928073       -0.16468050291564       -0.02471257230296
O           -3.00747899736552       -0.39680348413389       -0.03962113191373
N           -0.92048963894142       -1.26509143737712       -0.02115961981512
C           -1.44511599077078       -2.61769121924386       -0.05318073609394
H            3.76650198599310        1.19357096861357        1.07805085361712
H            4.06844103117165        1.00030141596824       -0.66394526847256
H            2.76991406558222        2.08346858058370       -0.08727383964558
H            3.59168418369815       -1.68792001579095        0.02749428986503
H           -1.84583804649000        3.13760145497981       -0.04957153219593
H           -2.96774595068706        2.10172738861532       -0.96781952609235
H           -3.02971147710018        2.10809509415512        0.78373087879888
H           -1.13089781131184       -3.18160574511368        0.83011911445779
H           -1.11752966228872       -3.15073290195408       -0.95111737810803
H           -2.53101049330554       -2.53895216032171       -0.06139847571897
H            1.34707345068228       -2.94781133458489       -0.04483053914482
