25
 energy: 56.139354785811 xtb: 6.6.1 (8d0f1dd)
C            3.61563732574929        0.86920728573554        0.13098337501340
N            2.60110135865824       -0.15123979851564        0.04219867287383
C            2.84946075694490       -1.45911440899717       -0.03937019248222
N            1.66686656173434       -2.12687234940329       -0.05915620088369
C            0.65217906578915       -1.19344270814002       -0.00139168255903
C            1.25584336167592        0.06052888829679        0.04899559730948
C            0.42468135017270        1.29787817079212        0.09076609179427
O            0.94900378806914        2.39865068287131        0.13552974727073
N           -0.89367920592286        1.06965536998827        0.07268786825700
C           -3.77639707952731        2.90113247513947       -0.17493341694536
C           -1.55310663088255       -0.03978898670959        0.03846639347730
O           -2.71890431242552       -0.30392070775924        0.04426550570687
N           -0.65138576862751       -1.35850591582401       -0.00522165799816
C           -1.28295803174257       -2.64380109543227       -0.03421446326317
H            4.00796251231812        0.89333017559418        1.14816973919611
H            4.41556156247403        0.59469570028110       -0.55409358068420
H            3.24078350392729        1.85355251118347       -0.12251954907729
H            3.80949149005122       -1.92474041714280       -0.06532309103890
H           -3.14223123305903        3.75061656857950       -0.15680578736014
H           -4.12905257118169        2.53878667227820       -1.11284784949015
H           -4.25203606314539        2.59577652114339        0.72746380168775
H           -0.98114901829267       -3.23579762299538        0.83549105266190
H           -1.03217851935934       -3.18032486120708       -0.95493532846652
H           -2.36056782897359       -2.46567422927403        0.00130125288472
H            1.55641158546138       -3.12773494999057       -0.10433558091805
