25
 energy: 55.066216139868 xtb: 6.6.1 (8d0f1dd)
C            3.60315130321047        0.89028985797405        0.11357590177149
N            2.60679580328452       -0.14911586378540        0.03773784414758
C            2.84055920483831       -1.44773148020382       -0.02823057795939
N            1.67229064681912       -2.13215941737078       -0.05283899748433
C            0.64689921913935       -1.20821121486124        0.00422937216049
C            1.25110460326638        0.04436593561940        0.06919564144228
C            0.43329242832103        1.28317458565526        0.08308503199903
O            0.96050254053114        2.38421121608055        0.10751896264286
N           -0.88988662506401        1.04374197244803        0.07454513264382
C           -3.81372723822382        3.05965953495687       -0.17393889513565
C           -1.53103246982274       -0.08312812119135        0.03665787721075
O           -2.70713755357705       -0.31657823922241        0.02039885102061
N           -0.65393687104672       -1.39948177923587        0.00105617654895
C           -1.27937497800975       -2.69385228120065       -0.03475443090565
H            4.01440796319511        0.94208531244579        1.12456671479264
H            4.41437900155466        0.68458802205464       -0.58538956720218
H            3.12592216281823        1.84545468143322       -0.11803525721596
H            3.80499534380539       -1.90276945422683       -0.06333470287374
H           -3.12341578454681        3.87664097019452       -0.15513523880415
H           -4.19695400290055        2.71104311723802       -1.11046136232225
H           -4.29458136116705        2.74974036949089        0.72973545582690
H           -1.00212968081050       -3.30406556261675        0.83106830636540
H           -1.03829281982130       -3.23890264002747       -0.95332502058937
H           -2.35146643931898       -2.50695145639392       -0.00665998803422
H            1.57543754875224       -3.13408844292946       -0.11103253749736
