25
 energy: 6.894256884615 xtb: 6.6.1 (8d0f1dd)
C            3.34231909253532        1.12133112908931        0.09762053979825
N            2.36712208005650        0.08400024101748        0.02295348863414
C            2.64122534343624       -1.27828865809708        0.00712247144561
N            1.44235303039155       -1.95115829819903       -0.04384548207898
C            0.44780192797488       -1.03747454945982       -0.00902025003184
C            0.96431866005179        0.25186208723367        0.03147610375094
C            0.13397947400564        1.42636564135267        0.04124800420274
O            0.56046699792157        2.58015106696705        0.07771113491987
N           -1.35946937262977        1.16654121716561       -0.01232404316605
C           -2.48840853084416        2.20498287040640       -0.09402037891239
C           -1.80756648386998       -0.12605661394775       -0.00414589141468
O           -2.99095584646211       -0.40310853736136       -0.00591389021117
N           -0.89833248819530       -1.23172019808682       -0.00653757305685
C           -1.41759418045119       -2.59469835133698       -0.04495670234723
H            3.80857815726556        1.16131123497009        1.08661493400558
H            4.12291055689910        0.95558544279006       -0.65111639843771
H            2.84388534895216        2.06628732159809       -0.08451586280904
H            3.60620095334517       -1.73160409401581        0.00359052061111
H           -2.02768770356041        3.19535170240641       -0.07731475495918
H           -3.10990048513379        2.09939157752509       -0.98989306537047
H           -3.18160933855445        2.12847251863394        0.74683423146085
H           -1.09014426572051       -3.16542582113945        0.83044173890596
H           -1.09105556485412       -3.12771215314320       -0.94504332105757
H           -2.50425670118940       -2.53425906137160       -0.04522828072141
H            1.35840854812908       -2.95687103022850       -0.08634673741562
