25
 energy: 55.972217643447 xtb: 6.6.1 (8d0f1dd)
C            3.62303675161273        0.85972522824741        0.12565967415284
N            2.61610766943641       -0.16864842314138        0.04277321102507
C            2.86264952071296       -1.47630326805010       -0.02674102796626
N            1.67547370075319       -2.13587288839650       -0.05715104174534
C            0.66216616323263       -1.20494741598434       -0.00092131807553
C            1.27069978100502        0.04742025928178        0.05436101654824
C            0.43136133350482        1.28484830425298        0.09093284226530
O            0.92604296596609        2.39987230866084        0.11827853622820
N           -0.87401932066997        1.03833003656943        0.08105651355487
C           -3.84293095121825        2.97712706346242       -0.17760607699230
C           -1.53958975744406       -0.06263188091257        0.04228277384582
O           -2.71036824956316       -0.30589185957091        0.03818481961191
N           -0.64296818307778       -1.37818249356190       -0.00443650344101
C           -1.27818588224324       -2.66011947529971       -0.03498135958609
H            4.01765346219995        0.88025762448991        1.14186131898060
H            4.42825699768716        0.59571758177622       -0.55988283723271
H            3.21673029135007        1.84023874234161       -0.12558106983143
H            3.82364895135940       -1.94382523598874       -0.06459476346173
H           -3.20526639634906        3.82481230382802       -0.16189927083045
H           -4.19122127558180        2.61622877855833       -1.11743734105507
H           -4.31352785037649        2.67122813530210        0.72809163469944
H           -0.98602804759471       -3.25572261231429        0.83508651143185
H           -1.03427958899774       -3.19807104206203       -0.95616489167160
H           -2.35323221363745       -2.47226701701563       -0.00186409720598
H            1.53459270153131       -3.12985554285265       -0.11040083755404
