  25
        -42.18197389
 C          3.1279523583        1.0776234585        0.4771852709
 N          2.1832366743        0.0663271580        0.1147531363
 C          2.4090875925       -1.3100755255        0.1568355094
 N          1.4095933275       -2.0120397650       -0.1913343281
 C          0.3715352604       -1.1054774994       -0.6085444337
 C          0.9300866886        0.2417380235       -0.2995284620
 C          0.0814555386        1.4108744811       -0.1835895478
 O          0.4849269319        2.5514564811       -0.1001541791
 N         -1.2618438790        1.0723993120       -0.1315082337
 C         -2.2265510852        2.1501056614       -0.0466455301
 C         -1.7823581891       -0.2156585521        0.1052052511
 O         -2.9386522072       -0.3500698428        0.4099349377
 N         -0.9209032381       -1.2794873813        0.0015646085
 C         -1.4260572023       -2.6209587015        0.1480853279
 H          3.6558231358        0.7851255619        1.3850665647
 H          3.8619798271        1.2049779840       -0.3232677192
 H          2.6103474207        2.0265805528        0.6241509575
 H          3.3503793753       -1.7182884051        0.4783488331
 H         -1.7291836370        3.0815050554       -0.3088492808
 H         -3.0537848092        1.9444023890       -0.7270246872
 H         -2.6378994470        2.2216711615        0.9629169956
 H         -0.6855625477       -3.2226349107        0.6749029286
 H         -1.6141245379       -3.0790012921       -0.8270084103
 H         -2.3589728498       -2.5776777734        0.7073902008
 H          0.2576190573       -1.2632234710       -1.7030410853
