72
 energy: 27.161398333403 xtb: 6.6.1 (8d0f1dd)
N           -1.09181847212193        1.65075144196480        4.20391733749145
C           -1.32989313927918        0.99479609457077        3.27625776602606
C           -3.49034624928162        1.90945268834162        0.05419490350096
C           -4.02875852822142        0.61525360722615        0.11236393000568
C           -5.25344316852989        0.25977842293830       -0.51992654068398
C           -5.75142771816238       -1.01769522808812       -0.47856114750637
O           -6.90470229838663       -1.43464559275068       -1.08190571160857
C           -7.67001585813908       -0.50234292550175       -1.79764553165181
C           -5.05670137406070       -2.03313248420943        0.22518919109805
O           -5.64057864517230       -3.26387576830792        0.21316007102874
C           -5.00578052040223       -4.31605372996887        0.89011322327472
C           -3.86608545622760       -1.70427303238325        0.86008481811285
C           -3.35914456692090       -0.42693516599492        0.80233641759755
C           -2.06113369803079        2.13978928781566        0.42408996086176
C           -1.08791002887283        1.35212629786370       -0.47191960737236
C            0.24015995747448        1.08179622047864        0.23896660306183
N            1.04123225432760        0.09275521775891       -0.46126508612579
C            2.45692323702849        0.14609097609592       -0.14645506816359
C            3.31226024661741       -0.34145575884991       -1.32860008961441
C            4.76530895262298       -0.29369142674864       -0.96026625842064
C            5.53965240575245        0.81578565596038       -1.23790316734912
C            6.87113482034490        0.87091285853652       -0.84712597336101
C            7.44596692414734       -0.18573803465923       -0.16511520474108
O            8.73777002189071       -0.24130813278883        0.26896437372798
C            9.58513691717192        0.84527549196493        0.00085092931806
C            6.66342088605838       -1.32610274743910        0.12525623767666
O            7.31307708899462       -2.31926698237790        0.79662519416016
C            6.61388555034091       -3.49698382695340        1.10554033060658
C            5.34081372093734       -1.36245208535910       -0.27402238188199
C            0.50424192127423       -1.24554636422174       -0.32223146184195
C           -4.30129556365751        3.11842928403577       -0.30777368444145
C           -4.45571264128133        4.02740824496169        0.92172411457344
C           -3.68842515477558        3.89292981844833       -1.47903646539857
H           -5.78203073513644        1.00595000811727       -1.08859944807986
H           -8.02061398190654        0.31392916156441       -1.15622899914630
H           -8.52866451141913       -1.05892333261511       -2.17104989827634
H           -7.11555727358343       -0.08463293669469       -2.64547921132701
H           -4.91502058637931       -4.11300873466523        1.96293177427943
H           -5.64713907525847       -5.18382893262415        0.74218799983405
H           -4.01307061959747       -4.52560995455243        0.47670532959445
H           -3.32365983119855       -2.45314977642367        1.41700334811388
H           -2.45768300313807       -0.21538100132043        1.34815138970026
H           -1.81669510187670        3.20002003579035        0.37232145315458
H           -1.89937578335316        1.82708048175407        1.46513436938106
H           -1.55299438119123        0.40872424426423       -0.74857159765062
H           -0.90021852453566        1.90425562164833       -1.39397313823330
H            0.03197752837912        0.76978120302044        1.27946080211052
H            0.80877952905082        2.01452702181053        0.28492071686446
H            2.70819973810771       -0.44803394245376        0.74928673476704
H            2.73475457681188        1.18260387792771        0.05981972417959
H            3.11146104608604        0.29837891333244       -2.18801995702157
H            3.03141421257620       -1.36149497919506       -1.59224128944447
H            5.11077714254024        1.65194618092958       -1.76970959349400
H            7.44985070983453        1.75001029828974       -1.08345734363956
H            9.23019383075539        1.76546911474566        0.47782811403969
H            9.69885129535586        1.01580061588066       -1.07523422924459
H           10.55016121337515        0.57078648937362        0.42472838460949
H            7.33271190949603       -4.13379852573316        1.61957374523558
H            5.76440676976507       -3.30403685102103        1.76987751060700
H            6.26008917795322       -4.00818889277825        0.20364303953379
H            4.73274880419806       -2.22862018160316       -0.06131760388076
H           -0.45949828240580       -1.31150525876852       -0.82308310262348
H            0.37015720733823       -1.54153005188539        0.73094498557547
H            1.17457069975712       -1.95703080766568       -0.79829859451315
H           -5.30859160146468        2.81478964233148       -0.59929907693746
H           -3.49379955704530        4.41097312166412        1.25211318238832
H           -4.90312911366502        3.47144949531552        1.74296601326214
H           -5.09834228503034        4.87135063113445        0.68179120352759
H           -2.73359537339751        4.33451226999004       -1.20646696843160
H           -3.53051009329010        3.22879984098009       -2.32562923588642
H           -4.35680602575750        4.69450786139193       -1.78433740799151
H           -0.90002228136205        2.20058654332521        5.01221118121439
