72
 energy: 118.668396008737 xtb: 6.6.1 (8d0f1dd)
N           -2.12779282455873        2.06941578147446        3.49791238590212
C           -1.97193609781944        1.39013390112115        2.50653935430577
C           -3.22031654964103        1.87788187019015        0.49227236526027
C           -3.83677545543352        0.55462992518813        0.41013183408440
C           -4.99180208554895        0.27974223594539       -0.33570620334981
C           -5.51307037859203       -0.99053545207722       -0.41451748761923
O           -6.59598558569329       -1.33261478962109       -1.18315412666705
C           -7.28194668964207       -0.33576033144574       -1.89600546763985
C           -4.95434957520154       -2.04082841777054        0.33863921571142
O           -5.53055309161300       -3.26180551999659        0.19789269695146
C           -5.01827910126766       -4.30448464544268        0.97830327261212
C           -3.84217441853426       -1.80291872078863        1.10109119173643
C           -3.29622456039826       -0.54257609442493        1.10050052567417
C           -1.71910051395277        2.04395475197549        0.18320140330034
C           -1.07356136818808        1.04111632646701       -0.76101061933381
C            0.32615726612317        1.07335387657359       -0.22030760114488
N            1.11588827212671       -0.04836491860528       -0.25812498009142
C            2.54488194518648        0.08381926025924       -0.22415640590757
C            3.33339602008929       -0.38915889802982       -1.48344501175329
C            4.79678525119944       -0.35697159777564       -1.13438356491560
C            5.58088503708564        0.74584995029508       -1.40902695078245
C            6.90037877193945        0.79956575479406       -0.98338234635895
C            7.46032102199417       -0.24449581232523       -0.26948140118379
O            8.72741714710963       -0.27327355548462        0.22479733785851
C            9.51025899164506        0.87707981083804        0.07041523898332
C            6.67582339159105       -1.38373746939390        0.00744919247840
O            7.29300261112666       -2.36505659266765        0.72519020916092
C            6.56166555574917       -3.52055300966015        1.04689697536204
C            5.36498580233252       -1.41936348676270       -0.42791373174451
C            0.58160401889508       -1.39689223199800       -0.34409199908578
C           -4.10169317480600        3.05891094515406        0.01309777181179
C           -4.83351905045177        3.79803626102629        1.14349177559652
C           -3.39816304999092        4.04639874241970       -0.94502957698313
H           -5.46137007934446        1.03661770529035       -0.93433129342222
H           -7.63007226255490        0.45457170517555       -1.22466025137593
H           -8.13825131459261       -0.84758926724361       -2.33081787853422
H           -6.68414682240297        0.11068878609522       -2.70788216198442
H           -5.14982971775267       -4.14142017234329        2.04323220576714
H           -5.58879936759694       -5.17937146118540        0.69084959847100
H           -3.96714179055446       -4.49703344172660        0.73468567200908
H           -3.39944108978640       -2.58725500224180        1.69762694816429
H           -2.43438935514992       -0.43290041553471        1.72204937599638
H           -1.52875922462809        3.00392743459195       -0.26544858892199
H           -1.06350953107032        2.01710431718601        1.05599006217519
H           -1.46163253582233        0.01357500118368       -0.57251066614674
H           -1.26169966305039        1.42868406738731       -1.79040970741519
H           -1.13097406833090        0.84052488881786        2.06295163386279
H            0.85195324640876        2.01726383730197       -0.08151614433923
H            2.91380814174268       -0.48736140471055        0.62061185142448
H            2.73774382634426        1.14493527533003       -0.05052382614228
H            3.12095405041939        0.26610146619558       -2.32786517379398
H            3.05264340771447       -1.40907616282305       -1.76023623386831
H            5.17406824716945        1.58096732417381       -1.95787427860685
H            7.48156999513275        1.67606013298994       -1.21526390208418
H            9.04386282441078        1.75490843535515        0.51421780248397
H            9.72463248457090        1.08955026994032       -0.98396767003254
H           10.46252499439663        0.65518465725545        0.56063905311290
H            7.26287005261985       -4.14967125632735        1.59674444703632
H            5.69284671569859       -3.28072973492826        1.66855961835872
H            6.23584876385783       -4.05217278150768        0.14997358328079
H            4.75710980528858       -2.28351529991263       -0.21565945379838
H           -0.23678216696494       -1.42745113977995       -1.05735394138672
H            0.08362864514775       -1.71254979604720        0.58136008370522
H            1.39778168181229       -2.08414311082689       -0.57273669144928
H           -4.95492460927257        2.61616738945668       -0.47409676395688
H           -4.16553348620153        4.39541516022764        1.76853101092699
H           -5.32516644199268        3.08805539748710        1.78377167947503
H           -5.64114389232381        4.37345550799901        0.67646463626753
H           -2.56159365126431        4.60365945941348       -0.51072056657342
H           -3.05148608437380        3.54622715202141       -1.85590149464075
H           -4.09832897475454        4.83937087758339       -1.17697820418546
H           -1.50928888586833        2.25163463029120        4.22690212383262
