72
 energy: 46.228230368738 xtb: 6.6.1 (8d0f1dd)
N           -1.32112037580696        1.64550259504871        3.89158343259612
C           -1.37104075371523        0.97269864002977        2.94065169661502
C           -3.44409341430193        1.90371895787180        0.17189105420482
C           -3.95924326727817        0.58965311966832        0.20642553200959
C           -5.17457806651874        0.26847112391559       -0.44855373010586
C           -5.67725837681559       -1.00416883864788       -0.44212331406273
O           -6.81960067767961       -1.38059757839925       -1.07972429745535
C           -7.55055658021287       -0.42519097047403       -1.79365873348366
C           -5.02183400939287       -2.05955340385114        0.24331876166963
O           -5.62198262660778       -3.28142364163800        0.17289535272036
C           -5.05003852687120       -4.34708746515781        0.88768519615596
C           -3.83500031340517       -1.77742394261715        0.88872281847307
C           -3.31462965826923       -0.49932834040529        0.85781314370449
C           -1.98497545696858        2.20312637586262        0.32661513196142
C           -1.07715797755610        1.31938707790620       -0.56063158961662
C            0.20408425102637        1.07751663880333        0.27794171401823
N            1.03818338651822        0.06938434672980       -0.34582139431887
C            2.48204750971179        0.11867350065122       -0.11655755922586
C            3.30931533021332       -0.33486657527756       -1.35165393491636
C            4.77470219294842       -0.29730707224867       -1.01425442464584
C            5.56074516228428        0.80054743728339       -1.30840321318956
C            6.89326337119813        0.84913133888098       -0.91716965737373
C            7.46576280140885       -0.20321344006361       -0.22621623994061
O            8.75718855339237       -0.25729192367601        0.21320892406647
C            9.58160874219238        0.85915660058364        0.00189877618889
C            6.67582322693341       -1.33644292993626        0.07047569665623
O            7.31549447441379       -2.32767524667639        0.75513529725662
C            6.60794344249435       -3.49622308885821        1.07462200336365
C            5.35336400827229       -1.36729069863437       -0.33075484396755
C            0.50400836218250       -1.28257316939425       -0.28814610182739
C           -4.27507797260692        3.09796189920631       -0.17031256827245
C           -4.52839929040333        4.01015840321124        1.06251813418262
C           -3.62851522040559        3.87695557544004       -1.30490012364978
H           -5.68697650865749        1.02809113906108       -1.01010884753757
H           -7.90263056384289        0.38837809530210       -1.14942556659377
H           -8.39852166899176       -0.98373704637515       -2.18276602621513
H           -6.98208342850867        0.00384665995066       -2.62925009416508
H           -5.00502498148217       -4.14234753634082        1.96148963422678
H           -5.69417920846007       -5.20385242022951        0.69177510615246
H           -4.03577214042488       -4.57318787967090        0.53651900689735
H           -3.31959028719093       -2.55686461205036        1.43724928306666
H           -2.41106696297985       -0.33680780450132        1.41419491880014
H           -1.81328455221315        3.26626266651089        0.11145605199129
H           -1.66490122128444        2.04343559255823        1.39282804884886
H           -1.55212967814338        0.33621090093194       -0.74190683486031
H           -0.92849180870009        1.80863171785929       -1.54114519803995
H           -0.16262086705707        0.89535290330038        1.42699770513949
H            0.80934341562958        1.99830850383628        0.26089369312732
H            2.79337574369346       -0.49387316810722        0.74934415883214
H            2.76501902234365        1.15011483750619        0.10922548122132
H            3.09360239069142        0.32479067987103       -2.19485942851652
H            3.02812474346490       -1.34977820912840       -1.64448390305039
H            5.14316060341242        1.63837087701161       -1.84700499483044
H            7.47562103331022        1.72476215611530       -1.15784399279839
H            9.17771443830280        1.76228064702569        0.46857325523276
H            9.74558441762152        1.04763901317635       -1.06799240211584
H           10.54070373141816        0.61040205193538        0.45666460090235
H            7.32543598772463       -4.13515932816707        1.59055055567855
H            5.75674043240525       -3.29315720205087        1.73342930785501
H            6.24844048550471       -4.00454183299023        0.17615676525893
H            4.74338257124131       -2.23047826530092       -0.11274303003787
H           -0.40772656861419       -1.32947746050300       -0.87078583127525
H            0.24044523991175       -1.60573693311643        0.73116046354851
H            1.21037422149185       -1.99708513071395       -0.70783236624823
H           -5.26301862860595        2.77241586666082       -0.49081050861421
H           -3.63167589755937        4.47498894341457        1.47347498036266
H           -5.00812406771599        3.45375056049989        1.86301863247428
H           -5.25213949841670        4.75254330957402        0.73824135040121
H           -2.71299413926302        4.41795390104283       -1.01591889060583
H           -3.41557272100554        3.20567060398765       -2.13021147428124
H           -4.34895409187794        4.61751477425071       -1.60648788418110
H           -0.90687691423944        2.04162746753546        4.68873288666636
