72
 energy: 55.568511747717 xtb: 6.6.1 (8d0f1dd)
N           -2.56270968450412        2.61553390229128        3.20922853601778
C           -2.43303588033138        1.81229875705845        2.26393902536048
C           -3.11061756255314        1.89431250159622        0.73627631428284
C           -3.77783017146165        0.54786110162424        0.54877088157672
C           -4.83570892334707        0.28144839424896       -0.32240876103884
C           -5.37962585065137       -0.98063750419986       -0.43621226154749
O           -6.41660230738864       -1.31736485592646       -1.26770022231292
C           -7.07451101418588       -0.30088285938385       -1.98001781661403
C           -4.89692776168220       -2.01892945459566        0.37658296248188
O           -5.42967204004201       -3.24954750184642        0.21510906137231
C           -4.96615725417535       -4.25456953672353        1.07223095827182
C           -3.88106650887226       -1.76945483506104        1.25325560775247
C           -3.30858121489860       -0.52345241929279        1.29915505344547
C           -1.71179583854631        2.02935930583827        0.09685160875684
C           -1.13321941489251        0.90746569960708       -0.76035311986670
C            0.33587855459817        1.07202418512531       -0.49018428758520
N            1.07752606964163       -0.06763477469191       -0.25289966684868
C            2.49680346555809        0.06069093361494       -0.25457942024990
C            3.30750587234879       -0.43115995593750       -1.48983332123884
C            4.75295630588148       -0.38273404699489       -1.11045627002148
C            5.52143918140107        0.73767809447644       -1.36065702013130
C            6.83149352850224        0.80644909259533       -0.91296704382665
C            7.39410113982457       -0.24101672328163       -0.20586266592057
O            8.65905960605390       -0.26455175080036        0.29465683660976
C            9.42611296588723        0.89178239678205        0.12826837617460
C            6.62331008292389       -1.39016659294620        0.05434657942813
O            7.24384087838682       -2.37193225417896        0.76893351029481
C            6.51617943221074       -3.53706743114403        1.06507800407525
C            5.32140519741577       -1.44167163579950       -0.39968755356957
C            0.52652491999001       -1.40443835563396       -0.39631449756977
C           -4.01993207219833        3.04441446859049        0.12667345982008
C           -5.00219615645563        3.56538785378164        1.15453332265572
C           -3.32777265430786        4.19765986275691       -0.64910486430126
H           -5.26192003076928        1.03171813258386       -0.96869128190314
H           -7.42637990344415        0.48371565289567       -1.30155633134874
H           -7.92398891736549       -0.80486364216239       -2.43004698807528
H           -6.45812822737549        0.14473628455877       -2.78288544578634
H           -5.14628927064807       -4.04486020246721        2.12358857711206
H           -5.52011997672240       -5.14176561330725        0.80714990167680
H           -3.91688070224282       -4.46132264021619        0.87995254161188
H           -3.49082686317201       -2.55041348956017        1.87949189283361
H           -2.47787315244131       -0.44503497720585        1.97014709063844
H           -1.64006099967842        2.85093267331047       -0.60029072516000
H           -0.98836126652436        2.22185488630686        0.91450528131063
H           -1.50127121397590       -0.07053559965885       -0.44301614072875
H           -1.52381475551881        1.14448109325756       -1.78508074610655
H           -1.66828033127775        1.06649667581031        2.26684775700291
H            0.84575539002247        2.02498564879836       -0.31772839445963
H            2.85066305997966       -0.49937272874695        0.61682108399821
H            2.71924637008607        1.12032368725709       -0.11132871496433
H            3.11525694677306        0.21375597492060       -2.34788885977350
H            3.02692374921352       -1.45489989009803       -1.74752200403931
H            5.10978322444805        1.57480677141784       -1.90059596282693
H            7.40150168297332        1.69325477754826       -1.13064025510985
H            8.93879248406602        1.76546019181803        0.55704011766417
H            9.62070114283557        1.10383006085406       -0.93219152138622
H           10.38245157373170        0.67795119162223        0.61269783145696
H            7.21763593118483       -4.15910446781782        1.62258977069288
H            5.63487375795202       -3.30676411375575        1.67545775621737
H            6.21876853576819       -4.06430117934334        0.15319801636335
H            4.72207682114398       -2.31211749604833       -0.19734201955141
H           -0.16595410397513       -1.50400153081487       -1.21000797013606
H           -0.10586645313899       -1.60120785640481        0.46116974745122
H            1.35408308819593       -2.12479615644902       -0.43481166987001
H           -4.70137873032971        2.57512438425017       -0.58309177989811
H           -4.52847334824261        4.21033277932077        1.87785693890256
H           -5.47515214254353        2.77107911651353        1.69186279148161
H           -5.79087024793919        4.08821810688655        0.64156983098530
H           -2.53797716817790        4.71840327324557       -0.11337146646434
H           -2.89039759174422        3.84238117492987       -1.59943886785626
H           -4.10594574845877        4.95867147314594       -0.78660816250058
H           -2.01405691298803        2.67313905974675        4.02959795413007
