72
 energy: 43.851073163440 xtb: 6.6.1 (8d0f1dd)
N           -2.69796062408692        2.78661527691542        3.14574966647557
C           -2.51926513702159        1.93662756464449        2.24513235264285
C           -3.10499807912941        1.91123071648869        0.75591244511603
C           -3.76249788495505        0.56019558835322        0.57868044502761
C           -4.78734267480267        0.28068757428865       -0.32829725862815
C           -5.33280069742187       -0.97970315660921       -0.44520121542282
O           -6.35806002338839       -1.31810197295307       -1.28916798251861
C           -7.00701695411098       -0.30353326769688       -2.01168064952478
C           -4.86706102394327       -2.01203173354895        0.38511195917234
O           -5.39070302450225       -3.24670717021778        0.22576408895864
C           -4.93892239598700       -4.23858950164297        1.10409775318001
C           -3.89461130157924       -1.74738221717196        1.30275287384499
C           -3.32695096052805       -0.49773270627482        1.35571452855276
C           -1.74859703470206        2.03798464455571        0.03558486292979
C           -1.14736173624940        0.90235637809906       -0.78691733549983
C            0.33186570384418        1.06172015266890       -0.57562813296297
N            1.05867568426827       -0.07632987718650       -0.30374374287716
C            2.46709992452753        0.04867226921016       -0.25074418965419
C            3.28597782944058       -0.44532170544316       -1.47690268831170
C            4.72708547313879       -0.39044069805060       -1.09327439756797
C            5.48967453526623        0.73573078537295       -1.33529286963980
C            6.79731116216269        0.80990355433099       -0.88061984150873
C            7.36264891783967       -0.23859603253566       -0.17724641357565
O            8.62782565778289       -0.26037731584735        0.32276068313706
C            9.39323403174061        0.89623212147191        0.14942532558671
C            6.59640347450253       -1.39161660304857        0.07704194874110
O            7.22011732442127       -2.37380092918354        0.78764349888640
C            6.49660740428159       -3.54374300983415        1.07365115478297
C            5.29672818528026       -1.44840232853151       -0.38272400989683
C            0.48880389107294       -1.40291166736112       -0.41301136191829
C           -4.00748427971866        3.04031969712830        0.13774717404691
C           -5.00324218474761        3.49101020531961        1.17897448655124
C           -3.33780370016532        4.24406420031050       -0.55404818729773
H           -5.20103307449059        1.02317015480384       -0.98735011239007
H           -7.36711769918081        0.48433290300867       -1.34304825157164
H           -7.85134280806626       -0.81045400614310       -2.46696832289514
H           -6.37590536506800        0.13552052818527       -2.80612529580337
H           -5.12589429581807       -4.00770321217784        2.15076488412958
H           -5.49352287367248       -5.12949932959226        0.85349165330367
H           -3.88899356699459       -4.45244519946739        0.92789607840536
H           -3.52077657525685       -2.52372992435076        1.93903211947276
H           -2.51398582942867       -0.40507606713580        2.04127252164117
H           -1.75497463190712        2.81144357865008       -0.71659713366949
H           -1.02925140292496        2.31798444474345        0.81918610900459
H           -1.52311089370124       -0.06997966863182       -0.48953736600703
H           -1.59035649441402        1.06986775818949       -1.78516202397536
H           -1.76428072931703        1.20289306734229        2.39344531347294
H            0.83821101304543        2.01700784151815       -0.39260167680118
H            2.80021105144576       -0.51546587103253        0.62729323359294
H            2.69292730946536        1.10660235908685       -0.10029817706254
H            3.08970144989485        0.19711065413867       -2.33536623136758
H            3.00512823207805       -1.46981977595047       -1.73172778581327
H            5.07508084863620        1.57384981527396       -1.87040282793199
H            7.36292394365061        1.70083446206389       -1.09278604781992
H            8.90276110922364        1.76952654255886        0.57687857804391
H            9.57572216010577        1.10754782537118       -0.91414148680454
H           10.35151336340769        0.68358560374561        0.62980460081834
H            7.19842682792083       -4.16802524917370        1.62758030270326
H            5.61196168505978       -3.32077393922916        1.68263663325881
H            6.20191444325587       -4.06594459653282        0.15750858647729
H            4.69999252365854       -2.32103794575657       -0.18416168903901
H           -0.15403171876886       -1.54590953369933       -1.25181467873004
H           -0.18274279292603       -1.55980456791706        0.41818215857938
H            1.29853202279976       -2.13400882998840       -0.39183144694680
H           -4.63864749557717        2.58107646430077       -0.62696792990834
H           -4.51248384558495        4.11283585239751        1.90878745590277
H           -5.49884509186759        2.67261130905443        1.65873124305052
H           -5.79253918495817        4.04035053120402        0.71414169561221
H           -2.56197753985897        4.72812935363716        0.02176100300759
H           -2.87845251481438        3.94786528804205       -1.51074518338755
H           -4.12301530776059        4.99579394363198       -0.64466317393992
H           -2.17918862973411        2.83886901949741        3.98901954608198
