72
 energy: -6.234668117598 xtb: 6.6.1 (8d0f1dd)
N           -1.62508128379540        2.83429877534625        2.33382712366773
C           -1.63397528191549        2.14491243492286        1.28271612941469
C           -2.77534719065823        2.04568334621146        0.30904613221770
C           -3.35681231079562        0.64678961458817        0.35942865240499
C           -4.33744547002539        0.25214483677854       -0.55186318813751
C           -4.87648160458196       -1.01888827595222       -0.52464825016863
O           -5.86058830265730       -1.48201840960056       -1.35625026718904
C           -6.43605707006444       -0.58823386053289       -2.27114406999991
C           -4.42746297076839       -1.94711391978568        0.43838054023591
O           -5.01846581510940       -3.17490581946475        0.39530113257181
C           -4.67230703854621       -4.10760303053081        1.38383176258624
C           -3.46133274987153       -1.55112649647993        1.33927297982280
C           -2.93230161759770       -0.26861305054799        1.29901747404545
C           -2.17952873761493        2.27080614449306       -1.09866802995551
C           -1.25608991955836        1.17194852816885       -1.65318002546550
C            0.03187001173636        1.11691018402964       -0.91408708930408
N            0.65573126249530       -0.05469842309328       -0.54102629216240
C            2.02982764180393       -0.04016209310119       -0.16203405159077
C            2.96012486349424       -0.54180241861454       -1.29105302926566
C            4.38717301683070       -0.43405802254702       -0.85955991824097
C            5.11025083177154        0.72782335283877       -1.06179903570843
C            6.41842398196153        0.83958149791209       -0.60946745348608
C            7.02604828595302       -0.21153469400861        0.05364910975953
O            8.30395367016918       -0.21522152802391        0.52686939360987
C            9.09302890031605        0.92650829413400        0.31106162691771
C            6.29547273450776       -1.39989667302287        0.27422648502930
O            6.97219812325567       -2.38387376533860        0.93039465687366
C            6.32563258698505       -3.60919541247461        1.15019169620744
C            4.99343656666608       -1.49205841398839       -0.18037953997047
C           -0.01727978640353       -1.31853310279480       -0.60805564698153
C           -3.89915304019613        3.07787773894456        0.55308931884783
C           -4.55414669681582        2.83529592824421        1.90235091616917
C           -3.39812352433640        4.51079189667789        0.48657209710082
H           -4.67314252793349        0.95121296057424       -1.29849884969401
H           -6.86323960378321        0.28334529760131       -1.76274447986512
H           -7.22379038980112       -1.14111393371574       -2.78457351648938
H           -5.69187441248063       -0.23568507184866       -3.00420451818325
H           -4.88502791599676       -3.72120167229806        2.38709778989938
H           -5.29288287469192       -4.98465457681125        1.20281176005299
H           -3.61665099003625       -4.39649118557286        1.32295711707480
H           -3.08861111294029       -2.23254846261914        2.08484674471555
H           -2.17107022971559        0.00521480942418        2.01452449301678
H           -3.00586228863335        2.43624120550495       -1.78580317696531
H           -1.58939523013401        3.17256445229730       -1.04121146331202
H           -1.77172462937708        0.21897671308048       -1.60891055961487
H           -1.07732811898254        1.38849116039492       -2.71713536039549
H           -0.76477064094845        1.60908146715019        0.86447607030343
H            0.67172295602361        1.98363761237066       -0.95664558188021
H            2.16839056750053       -0.66773012267692        0.72652328500966
H            2.31009891980742        0.98238563348530        0.09642774784608
H            2.77384484474348        0.07021151215797       -2.17430363468567
H            2.70729597244338       -1.57611999245976       -1.52959981785706
H            4.66109770206329        1.56306379208820       -1.57578241309259
H            6.95578551723828        1.75664041103053       -0.79204239200048
H            8.65896894416997        1.80802006128669        0.79507160011024
H            9.21115354215550        1.13710654433358       -0.76000314975303
H           10.06174956658775        0.69755736808545        0.75334394318075
H            7.05599342841258       -4.23855187631071        1.65530440595952
H            5.44182266164898       -3.49140274606393        1.78805377043749
H            6.02499298513864       -4.08700840691569        0.21027123996373
H            4.42668174345009       -2.39483596775729       -0.01908181328663
H           -0.21368311187785       -1.62808297107884       -1.63989872846162
H           -0.95965838830713       -1.26730369352286       -0.07004727449914
H            0.58748431879628       -2.07601708366202       -0.12236259567640
H           -4.64749042876864        2.94320996972726       -0.23463190242531
H           -3.78007502049498        2.94699622548540        2.64915597220942
H           -4.94946360364881        1.83114531260297        1.94383678814393
H           -5.37062259881302        3.52643778033477        2.09524078577296
H           -2.60203522685843        4.68177584909921        1.20232872407394
H           -3.03195372885859        4.72938328501568       -0.50820822722419
H           -4.21981978274669        5.18420269567026        0.72268564270139
H           -0.77152728253989        2.80241921999887        2.88703945719524
