72
 energy: 72.744010218112 xtb: 6.6.1 (8d0f1dd)
N           -1.53360977906983        1.67048096631021        3.81270176624178
C           -1.48218289437360        1.05761444891422        2.81289046011261
C           -3.39447656857241        1.90008563967857        0.23548112851977
C           -3.91769824124486        0.57979262392759        0.25493861652111
C           -5.12842824719244        0.27339187482243       -0.41257987546093
C           -5.63687657611294       -0.99665388462244       -0.42332629492648
O           -6.76815308110049       -1.35953518090964       -1.08807374203880
C           -7.48424573278364       -0.39815337110240       -1.81181514169826
C           -5.00294790826339       -2.06157708356326        0.26883818007909
O           -5.59351878113173       -3.28435884795821        0.16655925812016
C           -5.04675360382008       -4.34772051324155        0.90343283806572
C           -3.82996699339068       -1.79477655415699        0.93929569139496
C           -3.29753884089197       -0.52179738190116        0.91187928881547
C           -1.91120593558754        2.19519512394949        0.28743698776788
C           -1.07439227174322        1.25975310701512       -0.61078803557993
C            0.22186323909808        1.06708225652429        0.20243778915718
N            1.05892294747063        0.03827110124232       -0.32456510499969
C            2.50268188012828        0.10545799635847       -0.12127693836819
C            3.31193799519579       -0.34576008632457       -1.37919742938088
C            4.78090723498137       -0.30971085912773       -1.04997596088876
C            5.57123021290713        0.78478635542820       -1.34621959980107
C            6.90292350723441        0.82778455070222       -0.95143375813697
C            7.47314724418003       -0.22133525363958       -0.25403663590898
O            8.75715917275819       -0.27050826110827        0.20013622625465
C            9.56761502379756        0.86228656452681        0.02230876963057
C            6.68084176705671       -1.35146345768458        0.04216979654537
O            7.31062776306607       -2.34164944019294        0.73661862703710
C            6.59549808685447       -3.50346275719875        1.06142825424804
C            5.35932540823266       -1.37820587116819       -0.36312549794852
C            0.52023450753152       -1.31099750214723       -0.28337223036797
C           -4.23636526376206        3.08752618686131       -0.11830271264281
C           -4.59881910420354        3.96853715113098        1.11090696231560
C           -3.56475661747376        3.90756518593455       -1.21160747743848
H           -5.63810526103036        1.03628850217373       -0.96993678397948
H           -7.83711388282931        0.41137360013797       -1.16546158930461
H           -8.33432112565337       -0.94458600728549       -2.21673718445850
H           -6.90636510357375        0.03368932979794       -2.64084988213895
H           -5.05019422659889       -4.15248141907668        1.97594294201489
H           -5.66846834426221       -5.21507450514557        0.66814328504153
H           -4.02065494100724       -4.56665879744411        0.58921506986780
H           -3.33241752607228       -2.57946807750346        1.49827641055675
H           -2.39473304233857       -0.38578027072658        1.47539461428260
H           -1.71167049795014        3.23084817159932        0.00585690552772
H           -1.50334130608319        2.11666868266555        1.33420968709297
H           -1.55082561127483        0.25570687578093       -0.71054351044708
H           -1.00194932416176        1.72715473443457       -1.61478570829417
H           -0.29546447244806        0.88161363725054        1.56523705972504
H            0.81403376262236        1.99955737453444        0.19006875933569
H            2.84111345697408       -0.49725517074604        0.74045683175632
H            2.76083990433319        1.15030294388757        0.07241126359857
H            3.09610710843536        0.31342892087113       -2.22388287208994
H            3.02917711400280       -1.36067217578724       -1.67454154898961
H            5.16590772525040        1.62771533621460       -1.88589648375853
H            7.48640195532370        1.70086622818028       -1.19447953515168
H            9.14323455472599        1.75648817149551        0.48490909535089
H            9.75181338670259        1.06203028062058       -1.03942900889190
H           10.52486127719519        0.62297422956003        0.48812409583667
H            7.30969897886635       -4.14003797137849        1.58450946934545
H            5.74035780370933       -3.29088569813888        1.71460459808992
H            6.24164281487116       -4.01422757981030        0.16226258916784
H            4.74997594825646       -2.24097698232438       -0.14220707508475
H           -0.36169473098974       -1.35319411710163       -0.91813256429669
H            0.16856645828270       -1.62416264083342        0.70698715996614
H            1.25297079126076       -2.02864299260517       -0.64863303613510
H           -5.20490117813657        2.73528026799480       -0.45755537393953
H           -3.74687833321868        4.46855539189907        1.58286072931413
H           -5.09915300595019        3.37425010290746        1.86657999113794
H           -5.35174569869467        4.66898174692547        0.74111066294182
H           -2.66989528325127        4.47246221658102       -0.89654802675451
H           -3.31219293084244        3.26898649557414       -2.05255606596030
H           -4.27833974565495        4.65416878032259       -1.50482473434956
H           -1.04145163623489        2.08440645901609        4.54778953001825
