72
 energy: 32.256783296700 xtb: 6.6.1 (8d0f1dd)
N           -1.14807549546364        1.63851807390024        4.03462501107584
C           -1.31108246892037        0.94008554647854        3.12317142080936
C           -3.48504161567648        1.90992427389272        0.09951922157409
C           -4.00034826166239        0.60681269374636        0.16182570014554
C           -5.22048412364813        0.26336691013993       -0.47902459052572
C           -5.71773488320255       -1.01138597080407       -0.45930047304923
O           -6.86539260833757       -1.40625750863555       -1.08070514451654
C           -7.61496976504676       -0.46033030089069       -1.79062764042275
C           -5.04137157938675       -2.04767222538102        0.23308540464652
O           -5.64273436050822       -3.27150797886533        0.19409864010298
C           -5.03260778602531       -4.33111467885509        0.88170566696999
C           -3.84735248008120       -1.73790761254425        0.86781907626180
C           -3.33122370607174       -0.45827289233551        0.82782495387233
C           -2.04557307196302        2.17357846646554        0.37228736162269
C           -1.08810050465843        1.34564382478778       -0.51229495996313
C            0.20463586410526        1.08011195486295        0.28445022257560
N            1.02999260174420        0.08973676069693       -0.40414028188887
C            2.45986931073215        0.13610331514593       -0.12408146039589
C            3.31104989982609       -0.33493111262704       -1.32822539701392
C            4.77259703661643       -0.29093266191933       -0.97949720218566
C            5.55147394428562        0.81346330247980       -1.27090708117970
C            6.88355133306256        0.86645982299166       -0.88135399423723
C            7.45750618804761       -0.18843748845282       -0.19511353315002
O            8.75046457970128       -0.24280609465736        0.23888031343039
C            9.58969424224774        0.85521810510286       -0.01223310200094
C            6.67327793796545       -1.32595692309556        0.10038738953541
O            7.31912930324571       -2.31928466091383        0.77681753075559
C            6.61587013106336       -3.49359388559328        1.09058539683786
C            5.35094447554906       -1.36071292105485       -0.29859657247463
C            0.50206760532187       -1.25869589726154       -0.29907431046249
C           -4.30238185338226        3.11294724764239       -0.24027842951725
C           -4.46773016492624        4.04384145504920        0.99079958262979
C           -3.68048088305834        3.87134910022901       -1.40445335247078
H           -5.73605089617236        1.01705540664681       -1.04786448236318
H           -7.96561478662449        0.35471756760776       -1.14714579399558
H           -8.46667507843655       -1.02446429825573       -2.16358792578987
H           -7.05805914338271       -0.03508479175338       -2.63612797932291
H           -4.95612678325929       -4.12512328691477        1.95533976242837
H           -5.67489166207452       -5.19557162472011        0.72072829645155
H           -4.03268600856649       -4.54805370536435        0.49088955372332
H           -3.31407207542043       -2.50625446256809        1.41063045816964
H           -2.42490890107031       -0.27167188569341        1.37668409483380
H           -1.82231353055525        3.22887503472472        0.24222945281863
H           -1.82149917057892        1.93508599440012        1.42618786145348
H           -1.55596795540370        0.39476132987055       -0.77826244240932
H           -0.88458482386145        1.86710337579404       -1.45464430417286
H           -0.07606264051530        0.87718935243792        1.35307834224217
H            0.79698901075634        1.99960910136748        0.30318470651005
H            2.74013571541212       -0.47184520432702        0.75301552626148
H            2.74524895023136        1.16736835713618        0.09014404325776
H            3.10221779590713        0.32196316644148       -2.17337452125087
H            3.03352639392758       -1.35087232595776       -1.61370291195484
H            5.12535504492206        1.64881190733563       -1.80740670907768
H            7.46354493262907        1.74427979969038       -1.11964647093296
H            9.21359711258209        1.76897850304145        0.46025032906496
H            9.72150990755748        1.02877207014681       -1.08696021385282
H           10.55204688838495        0.59236249345244        0.42620311291951
H            7.33054496202889       -4.13423639745091        1.60790675017548
H            5.76726841306829       -3.29731903105758        1.75336406523374
H            6.25742865768226       -4.00448222749649        0.19126853951617
H            4.74128909099953       -2.22461740135440       -0.08398674858917
H           -0.44759853301513       -1.31192822631306       -0.81812161202003
H            0.33143069089784       -1.58793377645962        0.73720448170328
H            1.17472386216706       -1.97031285011429       -0.77504465952751
H           -5.31032326678700        2.81015214740271       -0.53602180413840
H           -3.53078621089344        4.46485884223219        1.35182917003859
H           -4.91727310686788        3.51052441706693        1.82490476822801
H           -5.15664407647824        4.83813339330576        0.71755196664813
H           -2.74308412165548        4.36770349056064       -1.12721805847267
H           -3.50647887011351        3.17899934892029       -2.22464360414500
H           -4.38787953525961        4.62734657191509       -1.71816908923049
H           -0.89157811679966        2.10090567963474        4.87109123925770
