72
 energy: 108.060408715220 xtb: 6.6.1 (8d0f1dd)
N           -1.75221173337887        1.74386680320652        3.70255065369397
C           -1.56910954564489        1.12891587842613        2.68196370220114
C           -3.34267847016386        1.89355842269257        0.29323867732709
C           -3.88408945462241        0.57436676570246        0.30625935818200
C           -5.08759931910540        0.27603982960251       -0.37558582776327
C           -5.59782106090415       -0.99367857366361       -0.41203585896477
O           -6.71088766613534       -1.35026414341286       -1.11698765666477
C           -7.41667559881292       -0.37650164240822       -1.83726446601864
C           -4.98566629220592       -2.05851654459600        0.29600677614197
O           -5.57252010888584       -3.27747742540127        0.17655524951168
C           -5.03563762072533       -4.33485612165240        0.92468803639120
C           -3.82832590039410       -1.80010734707333        0.99283090966393
C           -3.28629336577845       -0.53355550614440        0.97049714152821
C           -1.83874599828565        2.15952059489922        0.25389962411195
C           -1.07223246051914        1.19515200602861       -0.66990257385924
C            0.26525309160456        1.07653054595976        0.04016327845707
N            1.08215413398971       -0.00036870155320       -0.30152685934203
C            2.51708995973663        0.09924551044124       -0.15622133706841
C            3.31589439978014       -0.35981148128833       -1.41509110681612
C            4.78638429048934       -0.32640512181400       -1.08521976580977
C            5.57834153308896        0.76581645482486       -1.38432842197411
C            6.90845886982472        0.80553766995120       -0.98576130931035
C            7.47373188668056       -0.24017748570602       -0.27888493884025
O            8.74966417864097       -0.27484737061625        0.19865383356631
C            9.55066643475664        0.86621687037452        0.03873472220630
C            6.67964922507536       -1.36935451434368        0.01725461541016
O            7.30590923852630       -2.35588917079035        0.72017627780496
C            6.58412371328769       -3.51238868302131        1.04987324659188
C            5.36038058440964       -1.39437573791768       -0.39344054179052
C            0.53390247392555       -1.34693393775306       -0.28829133876728
C           -4.19138489808875        3.07778880139749       -0.07856341409985
C           -4.67391534396102        3.91915938392361        1.13433023128536
C           -3.50089369093199        3.95154839864529       -1.12791469612596
H           -5.59302852047184        1.04088043887297       -0.92942613149053
H           -7.76952113646584        0.42768260338538       -1.18490510674695
H           -8.26869830007066       -0.91127878431687       -2.25358128131974
H           -6.83167617553030        0.06079631715183       -2.65993802663952
H           -5.09061052798777       -4.15397008746053        1.99497395259603
H           -5.63549668316689       -5.20557699871384        0.66241437133495
H           -4.00265667001084       -4.54780607397292        0.64140938560875
H           -3.34957356295570       -2.58523677839212        1.56503057258349
H           -2.39370287788171       -0.41418537455081        1.55374790752075
H           -1.60234208724794        3.17093795578686       -0.03909044520871
H           -1.33997612611294        2.12907878852496        1.23495796355960
H           -1.53069559925004        0.17655060114549       -0.66823670868620
H           -1.09577957218124        1.64023338140872       -1.69111355074165
H           -0.61089338634032        0.86179885105906        1.91582546488290
H            0.83517653946924        2.01024419685638        0.09637658847202
H            2.87750193020668       -0.48872836032369        0.70041792304419
H            2.75164393056954        1.14989461003728        0.03015566390039
H            3.10318208239632        0.29918364612889       -2.25903449627550
H            3.03218529481941       -1.37621073959264       -1.70497814079425
H            5.17558930654501        1.60865290065731       -1.92656043563925
H            7.49667907769763        1.67419645356596       -1.23164347719166
H            9.11122687195182        1.75125964880488        0.50223414732331
H            9.75412500320014        1.07826224328028       -1.01716811412597
H           10.50371724192353        0.62787470103222        0.51773160887955
H            7.29337307495479       -4.15045535790059        1.58010923604304
H            5.72583391402314       -3.29036141430647        1.69474864412565
H            6.23420654097522       -4.02206275617447        0.14864561014912
H            4.74989467882079       -2.25550177005681       -0.16999224577824
H           -0.32887495654179       -1.38146525543654       -0.96149376764818
H            0.15085749609946       -1.68983013269321        0.69543967178161
H            1.29664181223144       -2.04954726125995       -0.60213719966254
H           -5.13167935819291        2.69572740585344       -0.45051913832867
H           -3.87788910099570        4.45429379564840        1.67053228784423
H           -5.18246111021676        3.28490006535352        1.84665416183383
H           -5.44773290966431        4.57570103905163        0.72267395598231
H           -2.62530985413928        4.52272203890740       -0.77497197553813
H           -3.21065391589674        3.35284456989467       -1.99167879776028
H           -4.20698943845729        4.71562587734271       -1.40708868449172
H           -1.17450334101640        2.11354077354087        4.40321878056920
