72
 energy: 40.024213079917 xtb: 6.6.1 (8d0f1dd)
N           -2.79008362896043        3.04030327112662        2.99356209158402
C           -2.53689543006976        2.11831462960418        2.16721769130283
C           -3.04617196688309        1.95008437588535        0.73580650161363
C           -3.67952501693192        0.58706223548952        0.58572994125500
C           -4.63721469866838        0.27943542314107       -0.38345688908430
C           -5.17453658515976       -0.98683459256342       -0.48049767212942
O           -6.19382420117147       -1.34727700767576       -1.32433003818083
C           -6.80348990915395       -0.36760290316428       -2.10805811961520
C           -4.73953937006552       -1.99940755296411        0.38709755103720
O           -5.26905270551959       -3.23783775088244        0.26777058870558
C           -4.84102216671559       -4.18986151740475        1.20067900004311
C           -3.82507005618639       -1.70360280535841        1.34277273042562
C           -3.30274919261545       -0.44249267377277        1.42367085234351
C           -1.89062194980345        2.08504474981614       -0.27523630730697
C           -1.17174237239887        0.96201732534028       -1.02892568530812
C            0.30870546060342        1.03797521088456       -0.82432977897068
N            0.95503546095051       -0.08177913923516       -0.35676820708443
C            2.34483356752357        0.00840092882881       -0.21535311437944
C            3.18877881229479       -0.48834498884985       -1.41878907933018
C            4.62280686058405       -0.41125150472314       -1.02329672396405
C            5.37124377001573        0.72959737211623       -1.24375937292682
C            6.67452273458167        0.82014990304356       -0.77327613746117
C            7.25263903754024       -0.23002885369801       -0.08330629340977
O            8.52100550684521       -0.24551323327462        0.41042056413802
C            9.28851667324267        0.90874325173407        0.21330591396146
C            6.49932743819734       -1.39533909290120        0.15352525314598
O            7.13773676118812       -2.37898309795141        0.84731723791246
C            6.43419701446055       -3.56611726107372        1.10338290225732
C            5.20344071969163       -1.46716776160417       -0.31897966435105
C            0.33899830187051       -1.38080828306773       -0.45635573352413
C           -3.98597230062237        3.04328734565255        0.22453937501683
C           -4.93217422427525        3.26702441851762        1.36395963804128
C           -3.35665489820768        4.36747566067597       -0.21613122569622
H           -5.02212968594139        1.00921889355219       -1.08046006505820
H           -7.17470864743535        0.44851231841745       -1.48318039700042
H           -7.62932500091407       -0.88092882779773       -2.59314393293805
H           -6.10973442793530        0.04328905111559       -2.86924572783696
H           -5.03866900620294       -3.88783044089396        2.23151989976501
H           -5.40840882304338       -5.08826219319189        1.00029866964307
H           -3.78606030910066       -4.42549063797613        1.07095895789437
H           -3.51028883590888       -2.46043459876398        2.03334300033498
H           -2.57023601168179       -0.35338867920785        2.19016243967652
H           -2.22571815911324        2.69409863689470       -1.09090545697250
H           -1.17219027758746        2.62507137722737        0.31196936694967
H           -1.59924992464651       -0.00453480397902       -0.84104665240476
H           -1.54268580262658        1.11766784632714       -2.01686733501453
H           -1.74551022394014        1.36727748746362        2.33289312959249
H            0.76829836728712        2.01157503097534       -0.59245057578707
H            2.61267825241213       -0.57622626401808        0.66975393586001
H            2.57114102808573        1.06046750928618       -0.04163350830500
H            2.97814430203535        0.14433138622373       -2.27999483876784
H            2.91581892749978       -1.51637862334029       -1.66814716511303
H            4.94689115946606        1.57060041436519       -1.76402028677178
H            7.22705049823258        1.72380914052694       -0.96856033604074
H            8.79944874061949        1.78329354922369        0.64658879532261
H            9.43037771735698        1.11754946290268       -0.85906348594688
H           10.25305805991955        0.69690150137893        0.67909571948681
H            7.13883747409801       -4.19787995143741        1.64222891658984
H            5.54220176673182       -3.37374641015993        1.71346782871311
H            6.13817105360708       -4.07074239299955        0.17607825300641
H            4.61635726618427       -2.34856601280934       -0.13300764083416
H           -0.09357475151925       -1.61104336634949       -1.38878415623511
H           -0.45290709154843       -1.45063994419169        0.26148639330724
H            1.06736324274744       -2.14490947647934       -0.25243447770526
H           -4.48927778189434        2.62794451472039       -0.66175146272500
H           -4.30910145776613        3.72259331434838        2.10120480285308
H           -5.39712625608179        2.36983359310839        1.70738594090775
H           -5.74145702334638        3.90816591370828        1.16044310963449
H           -2.58752771235340        4.77709193648358        0.41148184452530
H           -2.89050251751144        4.25263271189613       -1.19714360862441
H           -4.16649714024025        5.09110428765751       -0.15887535778558
H           -2.17957935948970        3.01850492193807        3.82313855578805
