72
 energy: 75.208144381392 xtb: 6.6.1 (8d0f1dd)
N           -2.41990424345239        2.44414669595088        3.27472506159636
C           -2.31451383030671        1.69005550055556        2.29965708564421
C           -3.11953851070485        1.87988030338047        0.70016712274814
C           -3.79305933564252        0.54183931286946        0.50916805060185
C           -4.88425212426157        0.28122406532479       -0.32302033327132
C           -5.42367642614222       -0.98451303131563       -0.42725486220184
O           -6.47552638332035       -1.31969690505820       -1.24172755941609
C           -7.14258967783937       -0.30784691266000       -1.94985999986046
C           -4.92119044814295       -2.02812125197618        0.36823542374220
O           -5.46710204093475       -3.25356156827246        0.20651932576739
C           -4.99024223320861       -4.27208721944533        1.04013493144458
C           -3.86774381092078       -1.79167538235634        1.20669965007929
C           -3.30200062575386       -0.54078187960801        1.23626423892241
C           -1.68384593226682        2.02704622001484        0.13523737640999
C           -1.11214827973182        0.93434578581034       -0.76443461096937
C            0.33857641855687        1.07415994033924       -0.40471449630346
N            1.09243836992752       -0.06200954996374       -0.20321970910798
C            2.52045485100938        0.07010893997960       -0.25399615728899
C            3.32287244812111       -0.41717904965371       -1.49803533359475
C            4.77288728042790       -0.37434312886300       -1.12355374632729
C            5.54724642036772        0.74032942569623       -1.38170059161369
C            6.86009151194007        0.80376837382250       -0.94155148549648
C            7.42087928331572       -0.24265789111066       -0.23143193402725
O            8.68634576413884       -0.26810159879136        0.26833928297037
C            9.45668844512262        0.88704827109358        0.10777142436135
C            6.64539819929903       -1.38800593079964        0.03467157914480
O            7.26383762163699       -2.36960517496750        0.75187120994327
C            6.53323540107005       -3.53049058987560        1.05750433790180
C            5.34091148730930       -1.43430054482804       -0.41310369210068
C            0.55559422830047       -1.40575377387617       -0.37883787591740
C           -4.03861892615708        3.04443976010696        0.10229332171075
C           -4.96771855249852        3.64433596261501        1.14811942190397
C           -3.33073612276883        4.14391851396774       -0.74795838118299
H           -5.32574495373814        1.03683983089880       -0.95384670444280
H           -7.48889320271658        0.47283472724838       -1.26467154715387
H           -7.99697333723283       -0.80678646515329       -2.39883706072920
H           -6.53398081568671        0.14265409061849       -2.75578409976735
H           -5.16097452784964       -4.08140984311843        2.09589358520940
H           -5.54646246448656       -5.15489056738639        0.76273037628696
H           -3.94078905142945       -4.47157481669842        0.83115285221930
H           -3.45486698178700       -2.57248481015062        1.82325613160696
H           -2.45835294883664       -0.45689571414478        1.88860475135039
H           -1.56101096529718        2.89734021408962       -0.49158337883824
H           -0.94797502877239        2.13077468296788        0.96674156817221
H           -1.47758397469032       -0.05393712971330       -0.43194463900929
H           -1.43982826723236        1.22431113970099       -1.79273941643266
H           -1.53919444014684        0.95439218135704        2.16193969876138
H            0.84934887505390        2.02283839451743       -0.24297344271051
H            2.88944055626950       -0.48767087213648        0.61036703436754
H            2.73355999051776        1.13181719068526       -0.11478935361374
H            3.13130354619859        0.23068604999487       -2.35456938637508
H            3.04250945961406       -1.43992550050167       -1.75925431187756
H            5.13791965986354        1.57655473217481       -1.92573871873509
H            7.43436883039836        1.68659520589723       -1.16466243715053
H            8.97465473550388        1.76164073968883        0.53973868537490
H            9.66126236730678        1.09962028436863       -0.94998477583979
H           10.41129228595544        0.67116546092950        0.59541745211352
H            7.23435675135735       -4.15097538420246        1.61737355028654
H            5.65562993400882       -3.29466043045282        1.67022695026510
H            6.23056703159119       -4.06157382776501        0.14995880695906
H            4.73894133907544       -2.30263359028076       -0.20708555452707
H           -0.18356560012921       -1.46948848469934       -1.16592421489287
H           -0.03720257210400       -1.64155175643131        0.50150823957561
H            1.39538689964328       -2.11410973551964       -0.47381352648604
H           -4.77549037859263        2.57375914235972       -0.54551483184679
H           -4.43009739140025        4.27553316565155        1.84926210429620
H           -5.46224578879396        2.88824983742284        1.72666352836033
H           -5.76700163467002        4.15982895932549        0.61945334196840
H           -2.52994567919330        4.68356624558656       -0.24362038114560
H           -2.91233701920614        3.73527451073097       -1.68625320396670
H           -4.08930008521877        4.91941701677189       -0.92355506825390
H           -1.86040351716706        2.50638445718578        4.07784051736540
