72
 energy: -99.389863010778 gnorm: 0.007869451839 xtb: 6.6.1 (8d0f1dd)
N           -1.76017107675872        2.73362517440559        2.11743316448171
C           -1.72520439781246        1.83798973058301        1.24541161128868
C           -2.72261300943641        1.71189977715261        0.12627814151358
C           -3.45903708405283        0.38958786646604        0.24348307040065
C           -4.27852402993023       -0.04474959923118       -0.79910390961776
C           -4.99198736018926       -1.23016264238269       -0.71442970896609
O           -5.81343868407898       -1.71500855018343       -1.66436682666883
C           -6.05955241096519       -0.95358474790822       -2.82342019869418
C           -4.87778973776551       -2.03473654833755        0.45473930790486
O           -5.59118470766918       -3.17452600187915        0.44423702915730
C           -5.55762363248179       -4.01983497733640        1.57109163845905
C           -4.06798719618366       -1.59139170078114        1.49042331479845
C           -3.37616558065323       -0.39347641801110        1.38762007472359
C           -1.89353683477063        1.76379314188174       -1.18982185172845
C           -1.15962423278578        0.48333905725119       -1.62247139325272
C            0.27572779051666        0.29517655295025       -1.10723692650329
N            0.36801819014631       -0.14458477630111        0.27530952349073
C            1.64901642672843        0.15570526789729        0.90044931145439
C            2.79851644468827       -0.64471291821335        0.38440457612350
C            4.09319226591245       -0.20878903450273        0.17165106550967
C            4.52133455148991        1.13482781029904        0.34667268793202
C            5.82997920020089        1.49757175882660        0.15114075416824
C            6.79533740507366        0.55791548140288       -0.22182246871123
O            8.09122549258482        0.80562387727490       -0.42095968517543
C            8.59523210404383        2.11121223691026       -0.24382275696019
C            6.39429269291039       -0.80413684061162       -0.41658942953000
O            7.39190094488053       -1.63428555770306       -0.77428616051940
C            7.11156478379717       -3.00046875279447       -0.97557637213112
C            5.08162052744463       -1.15671133734819       -0.23069637279130
C           -0.10589635880844       -1.49269758601252        0.49750906403646
C           -3.78797905937867        2.84958169603883        0.12572300147592
C           -4.65449409011530        2.80579148067045        1.38209926099976
C           -3.18551381466574        4.24222522971636       -0.03428880773704
H           -4.36187115915828        0.55587468540057       -1.68957833108031
H           -6.48828011239556        0.02244505780028       -2.57692906824426
H           -6.78064169282911       -1.52799049159478       -3.40172252335938
H           -5.14928590039537       -0.81594388583041       -3.41542838002126
H           -5.93298680450409       -3.51171190920113        2.46423698626306
H           -6.21189731220928       -4.85513605775869        1.32921305410421
H           -4.54669351186564       -4.39391715899538        1.76064036720685
H           -3.97542311555329       -2.17160852343608        2.39402680122320
H           -2.77930802541761       -0.06793231721674        2.22494948684062
H           -2.58308902550429        2.03122710180549       -1.99214603729972
H           -1.17099666716763        2.57744932699952       -1.10790011730658
H           -1.76091382157797       -0.39222816289485       -1.38065219274261
H           -1.07433495956242        0.52170601262352       -2.71013654884184
H           -0.93267559107806        1.07877896096338        1.17482803715418
H            0.80005320879900        1.25305677604932       -1.18456104179896
H            1.53823659725622       -0.04935863132978        1.97584148151110
H            1.83163416850233        1.22666492382571        0.78960243800599
H            0.78040930367215       -0.42145079351476       -1.76321729961352
H            2.59125468242458       -1.69138524590728        0.21550429228956
H            3.81082409224034        1.89120863590502        0.63719931881037
H            6.11502736264909        2.52806438701291        0.29140272277325
H            8.43058271691134        2.46856490588593        0.77644683883986
H            8.14702434039024        2.81082855442721       -0.95506404969024
H            9.66449677364935        2.03907012324888       -0.43333127993434
H            8.06191457289328       -3.45676817064631       -1.24616887968010
H            6.73092530383424       -3.46891617995474       -0.06269024168050
H            6.39455509008460       -3.14556934921122       -1.78933686563630
H            4.76857099091928       -2.17886119960122       -0.37010334481136
H            0.35012071603614       -2.21609802700362       -0.18962207742421
H           -1.18592445602524       -1.52806066490841        0.35767495889738
H            0.11366624720814       -1.79191758712837        1.52053910720246
H           -4.43983621986946        2.66306867048974       -0.73607775422280
H           -4.04793936143834        3.00949198272199        2.25954593637646
H           -5.13065363701996        1.83510690282457        1.49948079130251
H           -5.43187010096876        3.56279226456309        1.31790764882527
H           -2.50973157801095        4.45535096213578        0.78864485680579
H           -2.65039144971191        4.34733992457256       -0.97405984712715
H           -3.98282368042876        4.98111087857315       -0.01956730290442
H           -1.02384790972663        2.75778469059366        2.81508917268062
