25
 energy: 39.266796710340 xtb: 6.6.1 (8d0f1dd)
C            3.43910734159460        1.53194275513563        0.08804163263633
N            2.59586063899030        0.36844712869421        0.05452946632518
C            2.99074740678271       -0.89425502100692        0.05085685661979
N            1.92407138552106       -1.72236743900592        0.02067707150373
C            0.78428413549229       -0.94338195820586        0.00367234860346
C            1.23216562624910        0.38561881830633        0.02975927450194
C            0.28900062747589        1.48717070762120        0.00424978439399
O            0.60415249477395        2.67205472034985        0.00863222062851
N           -0.99288488027481        1.00672953833439       -0.03047724095030
C           -2.08226489196330        1.96401413105717       -0.05309232141034
C           -1.39022972019806       -0.39328031313306       -0.04332498346351
O           -2.58200829231785       -0.58417510708683       -0.06688914213543
N           -0.44932995272183       -1.35855751059090       -0.02993529685831
C           -3.14104567425458       -3.48939474255254       -0.10720912429013
H            3.94902982477182        1.59834937895622        1.04691217701324
H            4.17867486434712        1.47754884685444       -0.70663940811531
H            2.81202408507480        2.40875862032969       -0.05095659286900
H            4.00548495696846       -1.22003471038592        0.07199289147942
H           -1.62981662661724        2.94802631430827       -0.02471541111969
H           -2.68146328326182        1.83471198941804       -0.95575940460979
H           -2.73620106616204        1.81231348910379        0.80680870902995
H           -2.86367828858909       -3.95716673346514        0.80738054948990
H           -2.85156730789195       -3.90886980321454       -1.04144669003573
H           -3.61557315004626       -2.53751852299082       -0.08743122763746
H            1.97570247956492       -2.73295336621641        0.01319284482025
