25
 energy: 38.239633636551 xtb: 6.6.1 (8d0f1dd)
C            3.47635805785059        1.57898088055815        0.09292197534288
N            2.63900604501023        0.40791150245023        0.05335304883130
C            3.04069658766454       -0.85548202514183        0.05194443826992
N            1.96919861655023       -1.67739837928267        0.02183017517954
C            0.82415261296964       -0.90554468932778        0.00402340644877
C            1.27058817165231        0.42313520392662        0.02489896103852
C            0.31239294164527        1.50061178606995        0.00069143838692
O            0.59118336656116        2.69271493799285        0.00238233591041
N           -0.97210320823831        1.01273424409329       -0.02793248069331
C           -2.06521909598665        1.96755473705257       -0.05178015435218
C           -1.36855286572381       -0.36311285925346       -0.04062686737583
O           -2.55363419106680       -0.60048052337721       -0.06482364409991
N           -0.41025187474501       -1.32195940607499       -0.02642941339603
C           -3.26997515226467       -3.57525373972188       -0.11021115823243
H            3.99222423773356        1.64561457779123        1.05197709046006
H            4.21742438085537        1.54437897777080       -0.70568934753662
H            2.83832752138103        2.45477922517748       -0.03077876717408
H            4.06218452024818       -1.17815606112163        0.07015931007729
H           -1.63848826750451        2.96768125165207       -0.03205438914933
H           -2.66180534716818        1.82447808408898       -0.95318126707249
H           -2.71155112638426        1.80997014895611        0.81204978546479
H           -3.05796888772698       -4.08064970552678        0.80734023084653
H           -3.03888735933386       -4.05114553655888       -1.03888877790602
H           -3.55937216731031       -2.54770339525385       -0.09681616389427
H            1.98628678830384       -2.68463044819578        0.01267414682017
