25
 energy: 39.867466474741 xtb: 6.6.1 (8d0f1dd)
C            3.42898658251012        1.51382309694970        0.08655911842361
N            2.58115877413658        0.35221212331162        0.05603271122605
C            2.97598524595987       -0.91149217125346        0.05243738347121
N            1.90903656078213       -1.74042262238758        0.01734884899403
C            0.76659009600218       -0.96292935724230        0.00169869993790
C            1.21719119423504        0.36712135818930        0.03030637623055
C            0.27876316090867        1.47253532130411        0.00621821573255
O            0.60128972733396        2.65532109552622        0.01097581051200
N           -1.00555922500028        0.99950094589543       -0.03055395237420
C           -2.09158271313692        1.96436278254924       -0.05470686011694
C           -1.40866898747965       -0.39210815900147       -0.04288713018092
O           -2.60258551803368       -0.57070893384717       -0.06540708959575
N           -0.47434185860311       -1.36564060322879       -0.03073328917725
C           -3.06810339182460       -3.43741249202898       -0.10596395482470
H            3.94668157469826        1.58943990315995        1.04281603076519
H            4.16883821722414        1.44422108411644       -0.70634577104212
H            2.82558483763732        2.40962537555578       -0.06072635334509
H            3.99583228114406       -1.23974285620312        0.06390494792820
H           -1.62120974824094        2.94099993284796       -0.02563839134561
H           -2.69117183620621        1.84075169928608       -0.95840648978951
H           -2.75036667183152        1.81387633600198        0.80201765769778
H           -2.78497274287958       -3.90111015351559        0.80622552941066
H           -2.77488494128749       -3.85261368696563       -1.03840555431883
H           -3.56850656597966       -2.49837641160135       -0.08617589529894
H            1.98905628393428       -2.74928943314161        0.00886498489082
