25
 energy: 22.511156864085 xtb: 6.6.1 (8d0f1dd)
C            3.26481267573713        1.33100513873592        0.09587313218105
N            2.40506982621709        0.17558485553940        0.02679062944404
C            2.76424233940308       -1.15877938803452        0.04693675464542
N            1.62415591681292       -1.92470409110950        0.01922963246686
C            0.50102864844835       -1.17235512319688       -0.00726665807785
C            0.99944516961567        0.17416077390909        0.01053864095728
C            0.20109271120248        1.32041217155207       -0.01359230191782
O            0.54248711304901        2.50942734553364       -0.01162053522564
N           -1.17409222008207        0.94817380227055       -0.03564097980964
C           -2.14339133362498        2.04593695309066       -0.05114418525990
C           -1.69196257187474       -0.30941484021500       -0.04972519946787
O           -2.90787785020748       -0.39329989310686       -0.07129049001509
N           -0.90177583862531       -1.49986746129052       -0.04258864540660
C           -1.94577422391689       -2.72977412352234       -0.07534810468563
H            3.80116912637906        1.37548557368081        1.05155736812883
H            4.01749692475804        1.29739724499431       -0.70116242203133
H            2.65997679576377        2.24212222209395        0.00405673570941
H            3.76341552553458       -1.53127427830146        0.05621219814337
H           -1.57697591339249        2.97617457712206       -0.02907632398106
H           -2.74781233199966        2.00002154340652       -0.95457409113231
H           -2.78767393411367        1.98671222487375        0.82187900259797
H           -1.85305185773341       -3.36432558169698        0.80368503419015
H           -1.82746707821235       -3.33753820843604       -0.96783820938893
H           -2.90839219259117       -2.21862936203597       -0.08167562459309
H            1.64994802905619       -2.92942586196884        0.01487562202658
