25
 energy: 43.045294319112 xtb: 6.6.1 (8d0f1dd)
C            3.38168566959601        1.46173053352303        0.08702651337628
N            2.52699419136496        0.29906903768551        0.08078319612526
C            2.90973816850344       -0.98262655755406        0.06745778391052
N            1.82785501170282       -1.80672768150715        0.01756218513060
C            0.68946207362616       -1.02781112579529       -0.00056297688708
C            1.15938481734945        0.30312751856356        0.03395702314711
C            0.24346474221707        1.41755613529144        0.01318416400414
O            0.59407073884577        2.59372201406693        0.02235986696417
N           -1.04700693457791        0.97095249266997       -0.03185293082650
C           -2.09366858805464        1.98037199452852       -0.05402616453728
C           -1.48612196744108       -0.39117747568257       -0.04579537395550
O           -2.68918929199665       -0.50903009591105       -0.06777032081550
N           -0.57589957169968       -1.39946555332920       -0.03609536520676
C           -2.78435520458994       -3.23300387686272       -0.09801449805582
H            3.91603545214894        1.52898388995873        1.03401828485536
H            4.10765389968013        1.40475499434364       -0.72313966698497
H            2.77532878730051        2.36150513480873       -0.03801981473610
H            3.91824601080836       -1.33419646711255        0.06659914279709
H           -1.56734769003191        2.93308762288306       -0.03724010037697
H           -2.70409623235022        1.88691845253440       -0.95349096487476
H           -2.74786460403131        1.87290910266701        0.81284758392571
H           -2.49833675113524       -3.68673234745465        0.80454203902701
H           -2.49474731135020       -3.63131564050806       -1.02546744441413
H           -3.37486775998434       -2.35419682917275       -0.07369428640034
H            1.88422958937341       -2.82192757724356        0.01444717314567
