25
 energy: 41.485931641355 xtb: 6.6.1 (8d0f1dd)
C            3.41970048694558        1.48627982035859        0.08065985080439
N            2.55880271807920        0.32042046104112        0.06324139835504
C            2.95010560046986       -0.95131237276675        0.06228617176294
N            1.87172411716138       -1.77543986960091        0.01591509387705
C            0.73124135948062       -0.99782525713322        0.00007923157202
C            1.19277632287149        0.33275280434607        0.03118743167765
C            0.26247142276623        1.44407516464597        0.01088464403461
O            0.59950313316975        2.62324444529370        0.01755449160401
N           -1.02483308702242        0.98219189123656       -0.03078616078534
C           -2.09547172457197        1.96596445813869       -0.05468902813051
C           -1.44644674779576       -0.39322807110870       -0.04463877246480
O           -2.64527503589282       -0.54167517389723       -0.06767457337708
N           -0.52312041360354       -1.38329168023403       -0.03339136502975
C           -2.93014041574892       -3.33089067419872       -0.10237238278900
H            3.93971343535643        1.56550139229957        1.03645317973946
H            4.16715906806296        1.40698416352833       -0.71225230015238
H            2.81791180044389        2.38755807132674       -0.06152006676295
H            3.96211353034380       -1.29107554274060        0.06379168237378
H           -1.59287170051744        2.92894835530899       -0.02946065295464
H           -2.69879148081385        1.86659027419112       -0.95835642966988
H           -2.75581922362680        1.84217108288723        0.80529088283794
H           -2.65701637771907       -3.78903857868072        0.80139192229746
H           -2.65551317674371       -3.73121409579559       -1.03298679961588
H           -3.46764235274654       -2.42019824361430       -0.07896008282114
H            1.93550144461457       -2.78770716774760        0.00952100715345
