25
 energy: 45.888265366153 xtb: 6.6.1 (8d0f1dd)
C            3.32081353194009        1.41977962842637        0.09162277579356
N            2.47682528723198        0.24831559438339        0.06859068765394
C            2.85000935352173       -1.03986617675613        0.06357299601538
N            1.75704315853491       -1.85573857538865        0.02131292139173
C            0.62099918914378       -1.07316137929345       -0.00250344415569
C            1.10704951021169        0.25434247994809        0.02849200052313
C            0.21730459426471        1.37636479387018        0.00937671846105
O            0.57773079944282        2.55072346153003        0.02126579372195
N           -1.08547456504182        0.95833974018146       -0.03408229656285
C           -2.09630519207996        2.00910033706506       -0.05288760813805
C           -1.54875396827686       -0.37784615351446       -0.04818769925582
O           -2.75716275941272       -0.45720325096680       -0.06962739321119
N           -0.66173490334524       -1.42212139813066       -0.03925943508565
C           -2.55424606366778       -3.08801361740982       -0.09147998311919
H            3.87315055396949        1.46750968113847        1.02931984672215
H            4.02046679794555        1.41434955021032       -0.73859837019306
H            2.70864662609833        2.31865565635101       -0.00312673933085
H            3.85612956750966       -1.39280487694894        0.06630114931882
H           -1.52867506734728        2.93917897215974       -0.03446929033352
H           -2.70758624926755        1.93625532644528       -0.95267350473820
H           -2.74753523307243        1.91912976583918        0.81644598800431
H           -2.26639024049778       -3.53287780741029        0.81563487506138
H           -2.25414818541731       -3.48879777973763       -1.01489090721974
H           -3.21748202083919       -2.26656940649274       -0.07460168082639
H            1.80701137169803       -2.86914570222158        0.02098724468532
