25
 energy: 4.275390198347 xtb: 6.6.1 (8d0f1dd)
C            3.26310769467201        1.26796798100491        0.09263594158050
N            2.36711631576808        0.14446745581753        0.02560930395840
C            2.70856558944362       -1.19905634397657        0.03859111950006
N            1.54953130558571       -1.93552840216664        0.01258953703976
C            0.46143739438311       -1.13903012683909       -0.00888149079301
C            0.96663942447710        0.18150954374206        0.00425784153844
C            0.15888896953799        1.33307905325202       -0.01226395231227
O            0.49929587106898        2.52061248194208       -0.01419394895968
N           -1.22138255947447        0.97554879667412       -0.03340847386323
C           -2.18239043074947        2.07632177684776       -0.05028895531737
C           -1.74260679763934       -0.27684779684426       -0.04851548953386
O           -2.95111838774882       -0.41517540900257       -0.07142329677953
N           -0.91215821147046       -1.43556378606986       -0.03871640362931
C           -1.76190566389650       -2.68511957047298       -0.06825207636854
H            3.77414712772447        1.31141027135480        1.06169286573055
H            4.02784863158021        1.19526208338229       -0.68846150040834
H            2.68873829837763        2.19175515313823       -0.03588483714834
H            3.69850959833320       -1.59403482677128        0.05164360233964
H           -1.61715033008951        3.00866235856108       -0.02675467569853
H           -2.78759968719257        2.02497445879827       -0.95433999910118
H           -2.83311685797130        2.00851895464351        0.81926430995854
H           -1.60072914991007       -3.30726433874850        0.81484057003230
H           -1.57685096654742       -3.28299398201983       -0.96306745621488
H           -2.78153991426598       -2.32342946132573       -0.07804439283280
H            1.54403902870994       -2.93859314212618        0.00554758890254
