25
 energy: 40.606450815238 xtb: 6.6.1 (8d0f1dd)
C            3.42982283391213        1.50051886704607        0.08099812373341
N            2.57110144397745        0.33632930151135        0.05847682733782
C            2.96280286182202       -0.93178990266886        0.05791338938825
N            1.88963733266945       -1.75788309219446        0.01582517703181
C            0.74841528022494       -0.97979325756707        0.00068579275140
C            1.20563872285082        0.35012950204808        0.03086178039907
C            0.27060265687323        1.45838338616061        0.00990668142147
O            0.60048239131633        2.63912540507786        0.01613142330216
N           -1.01531341117399        0.99051383057035       -0.03032948721444
C           -2.09363283602238        1.96293219430534       -0.05488514572559
C           -1.42828841325405       -0.39244090630303       -0.04428741337681
O           -2.62468945438314       -0.55597565705182       -0.06777528787368
N           -0.49919821971478       -1.37375246334945       -0.03229842412948
C           -2.99914652836676       -3.38228930810544       -0.10500773036397
H            3.95204588196634        1.58711001268898        1.03650930727568
H            4.18139158216188        1.42452145491148       -0.70789521710071
H            2.83710446821477        2.40684589789931       -0.06757761302458
H            3.97830642321412       -1.26675909430659        0.06352407333821
H           -1.60799152992050        2.93354745281964       -0.02625660644320
H           -2.69517752413946        1.85339856004693       -0.95915466851915
H           -2.75572002751683        1.82645077928460        0.80220157463924
H           -2.71985355709281       -3.84352903977785        0.80184108378968
H           -2.71329554534556       -3.79010458984182       -1.03580537949728
H           -3.51949722767121       -2.45702135191580       -0.08279279534364
H            1.95904182937163       -2.76861532084824        0.00887114257691
