25
 energy: 38.714237611089 xtb: 6.6.1 (8d0f1dd)
C            3.45256653543017        1.55296887612011        0.09006990715096
N            2.61448424143653        0.38554675506385        0.05560614261593
C            3.01336454173182       -0.87801105450608        0.05013705125827
N            1.94456114967879       -1.70328675754024        0.02023063624329
C            0.80625932076327       -0.92480509740292        0.00435724829519
C            1.24981901591414        0.40425436508988        0.02943926487871
C            0.30292572101922        1.49990619374281        0.00304820677070
O            0.60726058656050        2.68733709013803        0.00528251338926
N           -0.97846822656617        1.01368216731783       -0.02931019010667
C           -2.07309472057444        1.96445710750886       -0.05270742849544
C           -1.37470615469943       -0.38175927578807       -0.04133312315754
O           -2.56193315887948       -0.59659990284275       -0.06492094665121
N           -0.42408824000195       -1.34294397732154       -0.02870637106176
C           -3.21630983563345       -3.53111607530684       -0.10916345467132
H            3.96056483008284        1.62109295426874        1.05122264256535
H            4.19488105710596        1.50439326710567       -0.70493759806379
H            2.81560932337704        2.42786357144973       -0.04329900266070
H            4.03038492986335       -1.20384578265836        0.07276900156987
H           -1.64121539271155        2.95897072192016       -0.02764415548540
H           -2.67053792827422        1.82706471002253       -0.95452733084234
H           -2.72342252088168        1.80881837333128        0.80861003270839
H           -2.94109371804150       -4.00138901146823        0.80637391790700
H           -2.92835154608054       -3.95996672978550       -1.04052209871734
H           -3.66752657608930       -2.56620597081563       -0.09563740069412
H            1.97164137298321       -2.71204950142342        0.01134581935953
