25
 energy: 42.211075294070 xtb: 6.6.1 (8d0f1dd)
C            3.40076535463995        1.47364072251654        0.08415004612244
N            2.54300334379951        0.31104155088325        0.07556944594949
C            2.93024609537721       -0.96627219188266        0.06586115468112
N            1.85063195758675       -1.79093763151300        0.01648662890340
C            0.71149115324960       -1.01345066497935       -0.00031594146783
C            1.17643955521276        0.31796123058869        0.03314097035917
C            0.25304587090079        1.43097420640209        0.01178897210694
O            0.59767260318469        2.60847704129166        0.01906932713485
N           -1.03565570920648        0.97640872692356       -0.03180219609842
C           -2.09512362225190        1.97426218009112       -0.05484025074734
C           -1.46595896905803       -0.39229938410776       -0.04502929159278
O           -2.66693640488320       -0.52636673615341       -0.06709562805878
N           -0.54885836729292       -1.39143857414163       -0.03478301328912
C           -2.85637358059548       -3.28468022298046       -0.10040105010293
H            3.92817059858330        1.54754743083222        1.03540861686757
H            4.13712868448453        1.40346545365131       -0.71779538323376
H            2.79656811116795        2.37408362279038       -0.05039074868475
H            3.94063729550118       -1.31238401464102        0.06481670856869
H           -1.57981151940517        2.93143189233067       -0.03620668158313
H           -2.70451344945085        1.87913224273912       -0.95521093452099
H           -2.75184700819884        1.86004114379349        0.80913231624066
H           -2.57747362847649       -3.74026271326215        0.80277827069965
H           -2.57591157796793       -3.68337345728758       -1.02983753778247
H           -3.41963429317550       -2.38961369427468       -0.07646074903130
H            1.91105056561344       -2.80489948351739        0.01173716622839
