25
 energy: 15.273309834389 xtb: 6.6.1 (8d0f1dd)
C            3.26332143053892        1.30915731334433        0.09411377684188
N            2.39031871072922        0.16383729460505        0.02204254526280
C            2.74514186687395       -1.17418339268516        0.04398222453786
N            1.59876870303300       -1.93101851294954        0.01752314817735
C            0.48336298773360       -1.16912456239487       -0.00826995853744
C            0.98505371071413        0.17139255267585        0.00639112024525
C            0.18542013966838        1.32079860701753       -0.01469360436752
O            0.52733648221910        2.50899150750084       -0.01412426066105
N           -1.19053729520381        0.95389944947953       -0.03505057651224
C           -2.15611951834737        2.05473828876512       -0.05042770210842
C           -1.70987830535491       -0.30244156211215       -0.04916463111023
O           -2.92350045675684       -0.39477008016809       -0.07094468045312
N           -0.91112895357962       -1.48857013680455       -0.04043676352492
C           -1.88357431635622       -2.71253571748744       -0.07333105379989
H            3.79045668800175        1.35268369546234        1.05507514541507
H            4.02217576265700        1.26184036131556       -0.69621028587222
H            2.67041461039432        2.22619552226829       -0.01058372252262
H            3.74180699171392       -1.55370001807926        0.05611295619185
H           -1.59051266742606        2.98590020638309       -0.02784381974602
H           -2.76152695195926        2.01028668907219       -0.95367050215212
H           -2.80257158534690        1.99633061386136        0.82160475501830
H           -1.76723390063779       -3.34586120311897        0.80734269498371
H           -1.74419769303802       -3.31941783989996       -0.96799044205791
H           -2.87148132368936       -2.26172712362663       -0.08021567275510
H            1.61505199207897       -2.93496689770431        0.01279438379063
