25
 energy: -2.805512924667 xtb: 6.6.1 (8d0f1dd)
C            3.25877108227464        1.22823641930762        0.09037641171639
N            2.34308145634812        0.12706266110840        0.03011838087244
C            2.66703473655920       -1.21880902827267        0.03500808900564
N            1.49776695807180       -1.93573125918528        0.00794124234614
C            0.43936645845521       -1.10238402261173       -0.00859445509361
C            0.94850788051817        0.20488382455188        0.00720479435567
C            0.13769069570666        1.35779830175304       -0.00890768522921
O            0.48512426436107        2.54391973851923       -0.01133154985530
N           -1.24662566878304        1.00414875688828       -0.03201425975363
C           -2.20263966541843        2.10444624907413       -0.04998918020848
C           -1.77533846173920       -0.24651965913574       -0.04788073056908
O           -2.97888635361616       -0.42495737359093       -0.07106576549824
N           -0.91661517817284       -1.37680894785062       -0.03770602009176
C           -1.64312599610213       -2.65915646114436       -0.06481498876413
H            3.75441073388608        1.27288093335010        1.06631690383598
H            4.02778003441963        1.13012296699795       -0.68210437926929
H            2.69979070507027        2.15555036102069       -0.06029016605123
H            3.65021638094755       -1.62790959502540        0.04756199273014
H           -1.63897546429314        3.03801051885705       -0.02562553242885
H           -2.80732929688210        2.04976749655071       -0.95483967194389
H           -2.85778051544581        2.03109950534565        0.81710133679555
H           -1.42737073725800       -3.26029079686445        0.82204466402170
H           -1.40266251369296       -3.23695424752707       -0.96068776730051
H           -2.69559358208429       -2.40810223770808       -0.07662712153336
H            1.47200237801602       -2.93884950425822       -0.00160418945396
