25
 energy: 38.363291446977 xtb: 6.6.1 (8d0f1dd)
C            3.46819485601072        1.57232906427856        0.09068875576856
N            2.63306084072704        0.40181113063820        0.05421080116969
C            3.03426099044151       -0.86195461299868        0.04948818806315
N            1.96405150750212       -1.68518217034878        0.02003429220622
C            0.82371773893281       -0.90979812558814        0.00475592405024
C            1.26693926366745        0.41950133025263        0.02820915897528
C            0.31578345076406        1.50578608525322        0.00000642360042
O            0.60102091871870        2.69739524319684        0.00051890449948
N           -0.96627350039770        1.01473411834451       -0.02883795067156
C           -2.06251903093770        1.96293126115514       -0.05194544931288
C           -1.36686150249713       -0.37151746949519       -0.04108283241822
O           -2.55234026863910       -0.60022263340862       -0.06568311680817
N           -0.40674936188310       -1.32799719088951       -0.02741035794311
C           -3.29789260153583       -3.57386961729095       -0.11050837283049
H            3.97479816996951        1.63969593074522        1.05388326897502
H            4.21264327015902        1.52915947171091       -0.70507276650966
H            2.83021279015041        2.44859205717867       -0.03984951869905
H            4.05298311799330       -1.18640313892878        0.07189392667957
H           -1.64524630974114        2.96654148163457       -0.03047883174349
H           -2.65826189235363        1.81807551356763       -0.95359661847335
H           -2.70819960392451        1.80267758023760        0.81184022295420
H           -3.02463527500855       -4.05010750953844        0.80367763863528
H           -3.00878518278323       -4.01146490184533       -1.03848188043955
H           -3.60669611516926       -2.55104546666892       -0.09549481578523
H            1.98954338739283       -2.69202866205107        0.01198146939840
