25
 energy: 47.127251941675 xtb: 6.6.1 (8d0f1dd)
C            3.29093307317067        1.39167399753071        0.09437618816241
N            2.45060931989894        0.21907318259858        0.05411613049316
C            2.81782621930805       -1.07729339823951        0.05686452558130
N            1.71073814376738       -1.88311736781723        0.02309732297897
C            0.57913046500934       -1.09990366876216       -0.00365199751377
C            1.07528161347090        0.22490340936113        0.02253136651991
C            0.20898129643840        1.35469122673190        0.00148898826734
O            0.56488924900210        2.53033826589782        0.01188197370418
N           -1.11034359889748        0.95947086848619       -0.03578154374092
C           -2.10930636003805        2.02643735254401       -0.05248148890186
C           -1.59383519144542       -0.35777685535596       -0.04919076579618
O           -2.80539944233693       -0.42568441390953       -0.07063936231142
N           -0.72374087102176       -1.42867486263465       -0.04022631184757
C           -2.38053846054305       -2.98711482556287       -0.08625816797095
H            3.83774593680720        1.44215443719042        1.03668999215757
H            4.01080075249724        1.38660365911318       -0.72266487143309
H            2.67412127441491        2.28886161383322        0.01009890451589
H            3.82303186001021       -1.44392305261895        0.06139381615995
H           -1.54604778452955        2.95742244845077       -0.03181035176758
H           -2.71707751798074        1.96418669588342       -0.95384273395417
H           -2.75603137758446        1.94848409112506        0.81904833069670
H           -2.12899287563676       -3.44425982530071        0.82565328892554
H           -2.10784754301302       -3.41048511483271       -1.00789177254375
H           -3.10423319097859       -2.21927545722602       -0.07743581856342
H            1.74545179599024       -2.89321919540214        0.01986786698661
