25
 energy: -6.050127465913 xtb: 6.6.1 (8d0f1dd)
C            3.24813310915250        1.19016782387564        0.08788816973107
N            2.31667538792837        0.11030098169966        0.03378381656750
C            2.62141178299632       -1.23342683628182        0.03280262646905
N            1.44413483464083       -1.93514861005007        0.00312832749735
C            0.41159159366907       -1.06977531590187       -0.00864485819844
C            0.92854463165134        0.22479491116468        0.01173875617722
C            0.12240130132049        1.38214602298789       -0.00633205163101
O            0.49324870096381        2.56099782367681       -0.00534262041119
N           -1.26288380447981        1.03697455289028       -0.03158261418387
C           -2.21613999945477        2.13561412206120       -0.04962340897667
C           -1.80600819655324       -0.21154717511702       -0.04745153452816
O           -3.00729786898574       -0.39785710123747       -0.07005189165195
N           -0.93242444894525       -1.32238988040191       -0.03755695258233
C           -1.52945446177499       -2.64453167468652       -0.06179755397754
H            3.72979972063976        1.23548696864820        1.06949788028358
H            4.01904448186831        1.06591931890487       -0.67659245354885
H            2.70163534151542        2.11820036741923       -0.08256716151975
H            3.59878692030082       -1.64931535093189        0.04370602962570
H           -1.65726710650556        3.07033038003351       -0.02563009036109
H           -2.82133004926343        2.07976371481726       -0.95410908463750
H           -2.87184802056908        2.06235992568161        0.81733468361627
H           -1.25394468085937       -3.21698974582734        0.82810672698830
H           -1.22928147232028       -3.19611489766159       -0.95698420233477
H           -2.60808732678719       -2.50925880269966       -0.07547192722441
H            1.40160398179120       -2.93841936858522       -0.00917229437132
