  72
        -99.35172736
 N         -1.3972193985        3.0841312498        1.9498454800
 C         -2.2044077880        2.1427365955        1.7907045126
 C         -3.0911255903        2.0596284725        0.5771386253
 C         -3.6143016314        0.6495049784        0.4755088170
 C         -4.5356124941        0.2586914306       -0.5045449464
 C         -5.0036494566       -1.0439090350       -0.5753024313
 O         -5.9042486985       -1.4956587219       -1.4719437304
 C         -6.4892727655       -0.5884393133       -2.3773021870
 C         -4.5361651093       -2.0255490399        0.3457852463
 O         -5.0428346220       -3.2591565081        0.1910735880
 C         -4.6844040311       -4.2787719994        1.0941522744
 C         -3.6062022519       -1.6412117329        1.3153711949
 C         -3.2015649556       -0.3389937378        1.3275852702
 C         -2.3111704895        2.4440577358       -0.7014055730
 C         -1.4050353119        1.3354159987       -1.2385351010
 C         -0.3003183622        0.9444342711       -0.2540714411
 N          0.5945616741       -0.0426977169       -0.8055625986
 C          1.9697881818       -0.0134622089       -0.3733587708
 C          2.9273998048       -0.4031064226       -1.5172850466
 C          4.3539985050       -0.2920600238       -1.0674806652
 C          5.0516401744        0.9011604174       -1.2075964422
 C          6.3612535416        1.0170024695       -0.7727521310
 C          7.0072482275       -0.0607207286       -0.1791724164
 O          8.2690860636       -0.0645768796        0.2804120405
 C          9.0492883124        1.1043364057        0.1742498654
 C          6.3015291856       -1.2900477154       -0.0294023542
 O          7.0023971620       -2.2822032082        0.5476250366
 C          6.4064155188       -3.5465212726        0.7187340593
 C          4.9897332251       -1.3788142898       -0.4731215924
 C          0.0103770662       -1.3518914050       -0.9543843328
 C         -4.2893083243        3.0406518204        0.8001847373
 C         -4.9990007451        2.7302720552        2.1182501305
 C         -3.8697800846        4.5053157871        0.7596917718
 H         -4.8819540920        0.9960187594       -1.2108359920
 H         -7.0177400319        0.2142690009       -1.8540363275
 H         -7.2029936616       -1.1727764304       -2.9545717076
 H         -5.7439650967       -0.1579868035       -3.0535270075
 H         -4.9511656702       -4.0154599013        2.1220243193
 H         -5.2537444582       -5.1538502960        0.7865731512
 H         -3.6149210328       -4.5052528996        1.0381291434
 H         -3.2280453439       -2.3547142778        2.0303455635
 H         -2.3687179134        1.3184851453        2.5149940294
 H         -3.0277280474        2.7035607999       -1.4820389919
 H         -1.7126536667        3.3249313437       -0.4746684158
 H         -2.0060412667        0.4584709112       -1.4811028307
 H         -0.9361094221        1.6864175113       -2.1593176538
 H         -0.7701809493        0.5614951931        0.6679901193
 H          0.2692782368        1.8391832667        0.0032448549
 H          2.1399717964       -0.6871488453        0.4808151816
 H          2.2159269180        1.0009563316       -0.0537957703
 H          2.7448143187        0.2658388649       -2.3585650757
 H          2.7213846716       -1.4234913616       -1.8409630924
 H          4.5728876507        1.7498678824       -1.6710979130
 H          6.8780744379        1.9535861013       -0.9041018956
 H          8.5977679402        1.9377025396        0.7206631392
 H          9.1996508478        1.3907133367       -0.8708602351
 H         10.0094787406        0.8561101807        0.6225778371
 H          7.1699907242       -4.1688695427        1.1815198576
 H          5.5348200889       -3.4924900712        1.3784404806
 H          6.1140257170       -3.9847569061       -0.2402683199
 H          4.4496218175       -2.3068215236       -0.3682931155
 H         -0.6737898089       -1.3615613413       -1.8031062540
 H         -0.5534599550       -1.6448683392       -0.0585025668
 H          0.7848794637       -2.0916563154       -1.1348979374
 H         -4.9972073035        2.8635859290       -0.0160919787
 H         -4.3804102069        3.0182099345        2.9651780592
 H         -5.2315764786        1.6702864232        2.1992935342
 H         -5.9305214456        3.2877954714        2.1772811403
 H         -3.0160978091        4.6787193707        1.4106468613
 H         -3.6069715528        4.8173785257       -0.2469839119
 H         -4.6946448587        5.1263698004        1.1003535428
 H         -0.8503372411        3.1159086038        2.8033831060
