  72
        -99.35492857
 N         -1.8572641899        2.7059495110        2.6287418014
 C         -1.8360406031        2.1114794600        1.5310647786
 C         -2.9957437366        2.0397909879        0.5761142929
 C         -3.4789191915        0.6016839217        0.4717651367
 C         -4.3953319751        0.2486852758       -0.5209602906
 C         -4.8821366236       -1.0432116518       -0.6305096122
 O         -5.7695776809       -1.4653986245       -1.5541700846
 C         -6.3373022683       -0.5319692134       -2.4426312764
 C         -4.4367730596       -2.0387019187        0.2815069678
 O         -4.9580570836       -3.2675427790        0.0983608841
 C         -4.6155672369       -4.2982490914        0.9953813793
 C         -3.5296530438       -1.6804225791        1.2661560391
 C         -3.0594193741       -0.3766738863        1.3598954772
 C         -2.4460601674        2.5231667534       -0.7918459271
 C         -1.5535001683        1.5017015252       -1.5182334548
 C         -0.2085483998        1.3502615185       -0.9208973790
 N          0.4207736455        0.2009855998       -0.7216948650
 C          1.8320324568        0.1895510335       -0.4125907174
 C          2.6847192522        0.0440921301       -1.6883715543
 C          4.1449687158        0.0252631908       -1.3358408225
 C          4.8251480083        1.2104732953       -1.0819860668
 C          6.1629394130        1.2138874520       -0.7363754511
 C          6.8595932015        0.0061805467       -0.6358226135
 O          8.1617248062       -0.1140081595       -0.3281401371
 C          8.9122248110        1.0386795442       -0.0175076439
 C          6.1742156937       -1.1905294879       -0.8836548950
 O          7.3134689163       -3.1819148828        2.2457821377
 C          6.9791600406       -4.3002555149        1.9978797840
 C          4.8402925399       -1.1756931194       -1.2238566814
 C         -0.2234290619       -1.0721042488       -0.9400762626
 C         -4.2047861377        2.9252169391        1.0019804911
 C         -4.8305638499        2.4301480840        2.3036022242
 C         -3.8531584374        4.4044070959        1.1306891635
 H         -4.7435390144        1.0007915594       -1.2091314369
 H         -6.8679930949        0.2605958844       -1.9066124941
 H         -7.0467007103       -1.0964203122       -3.0444093159
 H         -5.5811871997       -0.0887227736       -3.0989093026
 H         -4.9084801781       -4.0517841194        2.0201203818
 H         -5.1713978631       -5.1720559515        0.6616551864
 H         -3.5435359432       -4.5173845346        0.9642792618
 H         -3.1892130227       -2.4090901301        1.9836422885
 H         -2.3782177155       -0.1296373985        2.1592743996
 H         -3.2868812972        2.7605008669       -1.4425204464
 H         -1.8808897181        3.4430322532       -0.6371153391
 H         -2.0716498157        0.5472229206       -1.5909215604
 H         -1.4096265794        1.8809609380       -2.5387417036
 H         -0.9398796909        1.6064461258        1.1207360602
 H          0.3689775253        2.2494944414       -0.7626689821
 H          2.0464638166       -0.6403220172        0.2641492606
 H          2.1014864808        1.1202592484        0.0913256490
 H          2.4691986274        0.8848409104       -2.3508643136
 H          2.4147502992       -0.8790566113       -2.2023051471
 H          4.3048214565        2.1534476713       -1.1667234057
 H          6.6570386987        2.1541207102       -0.5520046737
 H          8.5274777153        1.5320148393        0.8802018378
 H          8.9243475028        1.7475292235       -0.8508444527
 H          9.9245251124        0.6872273314        0.1719672240
 H          7.6214245989       -5.0040882476        1.4481740281
 H          6.0036789196       -4.7156135545        2.3042770310
 H          6.7228142796       -2.1137266766       -0.7978323516
 H          4.3333858794       -2.1092148546       -1.4177912245
 H         -0.4146565284       -1.2450739653       -2.0013596261
 H         -1.1724328008       -1.1140622177       -0.4007727182
 H          0.4199045808       -1.8666430399       -0.5708461696
 H         -4.9547957409        2.8231572186        0.2090713096
 H         -4.1214184065        2.5293258601        3.1191225769
 H         -5.1348625614        1.3893708894        2.2237795280
 H         -5.7093015905        3.0264906741        2.5343843634
 H         -3.1043201344        4.5475550135        1.9032142309
 H         -3.4880333784        4.8197116639        0.1954342836
 H         -4.7441228785        4.9581918056        1.4144339761
 H         -1.0064364849        2.7140317597        3.1824438609
