25
 energy: -42.056357306228 gnorm: 0.005987285156 xtb: 6.6.1 (8d0f1dd)
C            2.53094237601887        1.04798824674631        0.58587425747125
N            1.72926346577423       -0.02997731188940        0.03054936165901
C            2.38190104473648       -1.12437853102728       -0.31966616441802
N            1.83673948943619       -2.31907123337308       -0.68953320260259
C            0.65480869976329       -2.82275882987095       -0.32211933392162
C            0.38166032152258        0.21273683517620       -0.13460671801600
C           -0.11741158000978        1.62761805955776       -0.23134423879956
O            0.61707419316307        2.56796646251889       -0.54700742577821
N           -1.40046584105403        1.74562637527343        0.04593922652246
C           -2.20702969760393        2.86196689806067       -0.11385221139560
C           -0.65635710753835       -0.74015822693326       -0.33896778997751
O           -1.77826148313428       -0.48516745026551       -0.70260271645523
N           -0.39814747176533       -2.16387008444127        0.00817216357639
C           -1.57592459527151       -2.85450118455335        0.49348698131497
H            2.21005260319566        1.25073632931010        1.60889294969223
H            3.58542842893682        0.78850779530191        0.58135715731935
H            2.37221487827673        1.96147694064231        0.00327516904594
H            3.46076911411139       -1.09945652064447       -0.25473832955796
H           -1.64434650694762        3.74095446777840       -0.45832528559457
H           -2.98863801004189        2.63118135463032       -0.84762945744558
H           -2.70564791843783        3.07807452297829        0.83708699113455
H           -1.34731681780117       -3.90820439940441        0.61994606044328
H           -2.39211260643253       -2.72531951945116       -0.21935110763314
H           -1.88401251978949       -2.41826043542252        1.44400815335153
H            2.49524905499196       -3.00547201909881       -1.04767287203554
