25
 energy: -42.112237947184 gnorm: 0.008956087350 xtb: 6.6.1 (8d0f1dd)
C            2.93887558526153        0.35893652819784       -0.53802940331789
N            1.79413710183196        0.01747767494416       -0.16669638832063
C            4.10166746141377        0.46125264210277        0.35007085200282
N            0.73114133081290       -2.56950679468300       -0.31360040585572
C           -0.52919976615135       -0.73672910790367       -0.04497229269716
C            0.53903351699708        0.16629453623642       -0.09560330798971
C           -0.05480731818254        1.57701197399548        0.04385027850513
O            0.57482877113627        2.59267839807120        0.03978423297976
N           -1.39730667510350        1.38872672306856        0.13164789478731
C           -2.35473657779415        2.46666790777121        0.24743105337306
C           -1.78001444836849        0.04764155475893        0.07690712755901
O           -2.91975164260298       -0.32904579954915        0.10666503771380
N           -0.41228183997686       -2.08101057305376       -0.16201212736992
C           -1.60474296092591       -2.90220456300095       -0.08540279687658
H            4.08980640652977        1.45943234820183        0.79886506144598
H            5.03383238525197        0.36360398290649       -0.20854516774433
H            3.09591482495851        0.54403179254420       -1.60276681451690
H            4.06990372813392       -0.25758352219614        1.16962246718774
H           -1.80963821204795        3.40771282711934        0.23717143031059
H           -3.05376972309089        2.42807504313630       -0.58784204674943
H           -2.91321784843670        2.36626464887931        1.17773101717894
H           -1.68405904742016       -3.32553110927578        0.91864418548341
H           -1.53034009855434       -3.72299474438626       -0.79943195737101
H           -2.50118726889383       -2.31620294626940       -0.27940972161571
H            0.73634382932424       -3.58676088001555       -0.38290659020288
