25
 energy: 0.000000000000 xtb: 6.6.1 (8d0f1dd)
C            3.23720163006194        1.16630919979326        0.08434469647475
N            2.29877817382611        0.07527477071623        0.03981603040599
C            2.58028210190900       -1.21425402444508        0.03006176031096
N            1.43813958087363       -1.93419271955128        0.00098261760884
C            0.39035688448383       -1.05887472636071       -0.00790371836672
C            0.93510056364412        0.21347819449412        0.01709077491437
C            0.09450143893243        1.40504303904423       -0.00410947031874
O            0.49712751527797        2.54126714362870       -0.00342325688240
N           -1.25076640035757        1.06271879480407       -0.03085478223738
C           -2.21907211982101        2.15522099834493       -0.05001256985998
C           -1.81739487048744       -0.20012725993278       -0.04692818574614
O           -2.99983886758376       -0.37846417018721       -0.07008878229737
N           -0.92618586207120       -1.30210215599479       -0.03682761578324
C           -1.46982264913417       -2.64643102187190       -0.06029820460571
H            3.71247264356769        1.21471455160235        1.06488849150277
H            4.00791497605742        1.03430808813993       -0.67357694370751
H            2.69910007168542        2.09770118228144       -0.09130154882931
H            3.56654120610678       -1.63682992603973        0.04233140067262
H           -1.67107961066214        3.09322851271934       -0.02552706933167
H           -2.82428953597071        2.09428624779827       -0.95318082946668
H           -2.87644029173232        2.07745725625962        0.81450067533302
H           -1.17061996399332       -3.19584890659852        0.83242232437030
H           -1.14560257411436       -3.17511610292205       -0.95688275822323
H           -2.55549792440841       -2.55659984320617       -0.07459039797972
H            1.38130855184625       -2.94313852034425       -0.01389874181052
25
 energy: -3.060384761335 xtb: 6.6.1 (8d0f1dd)
C            3.24026689919602        1.18186047270488        0.08621755219519
N            2.30426256668216        0.08802979783974        0.03798463591159
C            2.58485587168768       -1.25103696420783        0.03023933069297
N            1.41149971524375       -1.98551624084568        0.00005177685849
C            0.39969423742524       -1.06364350391746       -0.00838721382226
C            0.93010446510451        0.22145723606248        0.01542373587449
C            0.10198652999410        1.40446911347892       -0.00444051103069
O            0.49558423176129        2.57215689129755       -0.00260138475704
N           -1.26056205721035        1.06253517692567       -0.03120879790902
C           -2.22788096839989        2.15536338887325       -0.05020993197902
C           -1.81856114520199       -0.19069590935075       -0.04780501280911
O           -3.01442239857486       -0.37534182153668       -0.07134654652081
N           -0.92916583020450       -1.29132530582576       -0.03713317449535
C           -1.45040864455064       -2.63505794392610       -0.05955041271592
H            3.72477604724251        1.23789094598149        1.06529891434804
H            4.01063213039280        1.05955383982265       -0.67683999687174
H            2.70298863745548        2.11529283528557       -0.08580443691685
H            3.56827488911987       -1.65908740856790        0.04392399109838
H           -1.67774258314033        3.09353637228563       -0.02586239408960
H           -2.83509202849739        2.09828348731056       -0.95346552005423
H           -2.88724441750953        2.08145817027186        0.81427505505130
H           -1.13037122571457       -3.17614507383789        0.83294049833854
H           -1.10535366802895       -3.15644028873423       -0.95452067068968
H           -2.53556862138156       -2.55806288319374       -0.07405947056357
H            1.30966203504534       -3.04050578202420       -0.01608611899683
25
 energy: 1.311956382099 xtb: 6.6.1 (8d0f1dd)
C            3.24212146215783        1.18679391154414        0.08726431415935
N            2.30766208175251        0.08925523681135        0.03527275091610
C            2.57998545461583       -1.28350655091407        0.03120214504896
N            1.38165607097362       -2.02761203325296       -0.00030856282797
C            0.40644081098707       -1.06523406689579       -0.00898313723907
C            0.92634070288151        0.22460920443047        0.01352753015126
C            0.10857015015407        1.39750438366300       -0.00452387047761
O            0.48471766067804        2.57859602739238       -0.00106564234301
N           -1.27128895508857        1.06739600613857       -0.03174768803472
C           -2.23626492524024        2.16110505343926       -0.05055619232918
C           -1.81684629450557       -0.17820926884800       -0.04883688020544
O           -3.01623090332992       -0.37271094374560       -0.07319801826182
N           -0.93124834663503       -1.27291098994710       -0.03750140513893
C           -1.42323637004087       -2.62125118744072       -0.05856175968107
H            3.73606065217823        1.25468307385258        1.06330386659654
H            4.01222087307150        1.08478894430384       -0.68147219727322
H            2.70166564272434        2.12186477765575       -0.07792774524233
H            3.56474820832582       -1.67372969512206        0.04656094857721
H           -1.68615108029752        3.09994668486547       -0.02631858647165
H           -2.84599136117901        2.10495954668417       -0.95303657369949
H           -2.89792661561471        2.08811215181754        0.81310645218600
H           -1.08047214628698       -3.15177109590392        0.83398642480140
H           -1.05533965647907       -3.13367135190960       -0.95172357265740
H           -2.50864496803541       -2.56951525931266       -0.07350409142771
H            1.22966652016873       -3.12046395713399       -0.01792461297891
25
 energy: 3.815527604516 xtb: 6.6.1 (8d0f1dd)
C            3.24186313500654        1.18560539472572        0.08728624406871
N            2.30885717448384        0.08659092074199        0.03378654395756
C            2.57525258573460       -1.29407221046289        0.03216049676404
N            1.37019851378175       -2.03999789226524       -0.00006214283966
C            0.40752045095575       -1.06647553769409       -0.00929535897834
C            0.92572004683863        0.22360958114409        0.01271529520180
C            0.11103767649779        1.39575852161523       -0.00432036182709
O            0.47888352693412        2.57711714229584       -0.00002009178406
N           -1.27578579786924        1.07266635802472       -0.03215065028389
C           -2.23898871831414        2.16660725965699       -0.05085601214456
C           -1.81755742803166       -0.17333235002757       -0.04953004918982
O           -3.01619494181927       -0.37343224757557       -0.07453622522632
N           -0.93239174560999       -1.26401034122805       -0.03773290580796
C           -1.41036181429042       -2.61664480593239       -0.05796700535408
H            3.73955817592788        1.25539432745270        1.06143137383309
H            4.01034510964974        1.09333221569663       -0.68457656768940
H            2.69789308248949        2.12051487423666       -0.07314193348742
H            3.56340182424640       -1.67605284255237        0.04812005504132
H           -1.68962509462869        3.10562828056961       -0.02663783371807
H           -2.84934090551080        2.10973637251915       -0.95303289477171
H           -2.90110115261354        2.09291142466335        0.81258325702931
H           -1.05812695978472       -3.14013236500016        0.83533954333502
H           -1.03275249675515       -3.12311116690415       -0.95075609014576
H           -2.49585893533675       -2.58119212120050       -0.07324678507869
H            1.19976935595400       -3.14799019032769       -0.01852600475675
25
 energy: 4.396936762169 xtb: 6.6.1 (8d0f1dd)
C            3.24153260685611        1.18468574103892        0.08723808945590
N            2.30944772768289        0.08524119386352        0.03308064917746
C            2.57358659286850       -1.29510032669472        0.03295732949166
N            1.36865440018890       -2.04104892136632        0.00025462092461
C            0.40739462868263       -1.06766417765304       -0.00949112901211
C            0.92600691024526        0.22230016126812        0.01225996136680
C            0.11206698347763        1.39582583094636       -0.00433315910387
O            0.47703086272073        2.57589455133316        0.00051236941688
N           -1.27668756384659        1.07464283093668       -0.03241170165367
C           -2.23918145697278        2.16845842039439       -0.05099432430765
C           -1.81857097448681       -0.17266786368889       -0.04984883315719
O           -3.01640000780868       -0.37442195220222       -0.07508145319011
N           -0.93303452126338       -1.26152748905693       -0.03785983825809
C           -1.40779983433013       -2.61594962786779       -0.05773894729225
H            3.74045370560198        1.25325171632356        1.06058719319933
H            4.00878165839989        1.09497246857007       -0.68586113353583
H            2.69623155665273        2.11930231907790       -0.07112015143017
H            3.56367246471029       -1.67359892599753        0.04862904487372
H           -1.69022711890013        3.10751366898729       -0.02680439009267
H           -2.84962635280657        2.11151888545164       -0.95313571640297
H           -2.90123204496988        2.09473394177219        0.81254041924477
H           -1.05395333893915       -3.13680970512662        0.83602252313915
H           -1.02842863991481       -3.12022850369249       -0.95059063478686
H           -2.49296312413515       -2.58579851486390       -0.07315531062611
H            1.19545954822266       -3.15449711958130       -0.01862158129342
25
 energy: 4.580826667296 xtb: 6.6.1 (8d0f1dd)
C            3.24137280057291        1.18413810528117        0.08722286722668
N            2.30984287109693        0.08447646162795        0.03248984851503
C            2.57280789138571       -1.29455939431360        0.03394563555511
N            1.36918797310240       -2.04007596353516        0.00061240214845
C            0.40711617692556       -1.06853811975321       -0.00970488874633
C            0.92620023950813        0.22144193626453        0.01180250334905
C            0.11287245602130        1.39606520728436       -0.00445261359330
O            0.47630604379048        2.57548703429204        0.00089272739953
N           -1.27675050304296        1.07522788371449       -0.03263392612561
C           -2.23896153627066        2.16884716747500       -0.05107176817229
C           -1.81937155368218       -0.17278826010480       -0.05001802453856
O           -3.01669655676700       -0.37488152194984       -0.07530717291064
N           -0.93355834126694       -1.26055421293925       -0.03796584411905
C           -1.40777228096324       -2.61591410831278       -0.05764441982683
H            3.74095177251718        1.25154242675819        1.06015980657287
H            4.00790051991692        1.09539984559371       -0.68653016639910
H            2.69568709099789        2.11863429419179       -0.06994947570567
H            3.56403984623622       -1.67094344444787        0.04858059856936
H           -1.69032057526041        3.10802313732384       -0.02690759188918
H           -2.84950868072681        2.11213213758170       -0.95319433345505
H           -2.90094076110181        2.09536384590955        0.81258885084458
H           -1.05375003373996       -3.13568638904079        0.83632553559463
H           -1.02814933009297       -3.11933563686459       -0.95053627434528
H           -2.49269598503174       -2.58749051203133       -0.07312261439159
H            1.19640512381126       -3.15698331783307       -0.01854776540954
25
 energy: 4.607049203930 xtb: 6.6.1 (8d0f1dd)
C            3.24139213965793        1.18402314256753        0.08725271704863
N            2.31003130856544        0.08427798534509        0.03205593183687
C            2.57259141606497       -1.29402736486211        0.03521990579113
N            1.37014526969102       -2.03883731116944        0.00093187776472
C            0.40690902822170       -1.06881553902316       -0.00991242010793
C            0.92611863520723        0.22143315980451        0.01142916910811
C            0.11340107240275        1.39625422887081       -0.00458900020577
O            0.47633449332451        2.57586658511856        0.00105833758172
N           -1.27658097598784        1.07494956322376       -0.03278486594939
C           -2.23877202523692        2.16845577424832       -0.05109885377854
C           -1.81967638671267       -0.17303443265933       -0.05004677761501
O           -3.01692247965648       -0.37476414993604       -0.07525016548808
N           -0.93382328100664       -1.26048262351494       -0.03803949185622
C           -1.40856714766736       -2.61607126106256       -0.05765258348579
H            3.74109615607420        1.25096616239067        1.06016031250434
H            4.00783717094516        1.09537575304762       -0.68663585200108
H            2.69581649067415        2.11853640541595       -0.06960486763183
H            3.56417313786246       -1.66971730054670        0.04778192175030
H           -1.69027143984327        3.10777595475631       -0.02694233429703
H           -2.84942973253036        2.11195584325197       -0.95319371918939
H           -2.90073099342261        2.09516814530083        0.81263437871580
H           -1.05476486765453       -3.13586956637924        0.83631178393514
H           -1.02915660687645       -3.11958062759217       -0.95051981694605
H           -2.49346948471229       -2.58709650024534       -0.07313178276477
H            1.19853377055209       -3.15771342417888       -0.01839990857260
25
 energy: 4.611395933925 xtb: 6.6.1 (8d0f1dd)
C            3.24145445292629        1.18413221398875        0.08731169330565
N            2.31005524659809        0.08436651532428        0.03197089558556
C            2.57260831782768       -1.29416289090064        0.03636771692177
N            1.37032661750664       -2.03855069126106        0.00106104385064
C            0.40690361206768       -1.06864724314226       -0.01003049424167
C            0.92598034369150        0.22183639872146        0.01132713262646
C            0.11349731141932        1.39628649793217       -0.00464798186684
O            0.47650569632321        2.57620607626083        0.00098839506392
N           -1.27660406927250        1.07471023377544       -0.03283101850343
C           -2.23882141091133        2.16825427724086       -0.05109948626005
C           -1.81953241031256       -0.17302988925851       -0.05001610008001
O           -3.01689669853961       -0.37457411474262       -0.07511336130350
N           -0.93377555310552       -1.26071927739006       -0.03807886668315
C           -1.40877250922181       -2.61612872786760       -0.05768788875372
H            3.74096757540783        1.25129713698462        1.06034252418520
H            4.00812989324453        1.09535143237012       -0.68640933138737
H            2.69594061332745        2.11865249367404       -0.06979455058901
H            3.56408366955295       -1.67011489047398        0.04660669037108
H           -1.69024590476793        3.10756585859164       -0.02693464436949
H           -2.84950614835262        2.11176810565290       -0.95318052718667
H           -2.90078732326621        2.09495057446738        0.81263074609956
H           -1.05503949692478       -3.13619698108232        0.83622755504156
H           -1.02944867202801       -3.11989883084910       -0.95052289909521
H           -2.49374373612163       -2.58648317088995       -0.07314645483504
H            1.19893525086755       -3.15784250495437       -0.01830689174893
