25
 energy: 0.000000000000 xtb: 6.6.1 (8d0f1dd)
C            3.23720132972391        1.16630909158653        0.08434468864950
N            2.29877796055224        0.07527476373246        0.03981602671198
C            2.58028186251803       -1.21425391179017        0.03006175752192
N            1.43813944744728       -1.93419254010258        0.00098261751768
C            0.39035684826767       -1.05887462812143       -0.00790371763344
C            0.93510047688824        0.21347817468824        0.01709077332874
C            0.09450143016486        1.40504290868848       -0.00410946993748
O            0.49712746915594        2.54126690785742       -0.00342325656480
N           -1.25076628431515        1.06271869620815       -0.03085477937476
C           -2.21907191394203        2.15522079838987       -0.05001256521996
C           -1.81739470187490       -0.20012724136556       -0.04692818139228
O           -2.99983858926755       -0.37846413507442       -0.07008877579474
N           -0.92618577614240       -1.30210203518959       -0.03682761236648
C           -1.46982251276835       -2.64643077634382       -0.06029819901142
H            3.71247229913541        1.21471443890471        1.06488839270555
H            4.00791460421487        1.03430799217987       -0.67357688121503
H            2.69909982127087        2.09770098766290       -0.09130154035862
H            3.56654087521359       -1.63682977417947        0.04233139674524
H           -1.67107945562430        3.09322822573871       -0.02552706696334
H           -2.82428927394145        2.09428605349656       -0.95318074103337
H           -2.87644002486466        2.07745706351925        0.81450059976605
H           -1.17061985538665       -3.19584861009707        0.83242224714061
H           -1.14560246782873       -3.17511580834413       -0.95688266944647
H           -2.55549768731684       -2.55659960601237       -0.07459039105944
H            1.38130842369251       -2.94313824728853       -0.01389874052104
25
 energy: -0.883013339977 xtb: 6.6.1 (8d0f1dd)
C            3.23929179610655        1.18455516762071        0.08600077073699
N            2.30266864216792        0.08750837522406        0.03809470801136
C            2.58043593873633       -1.25472932629639        0.03032244789835
N            1.40794549556467       -2.00177416443661       -0.00017305336556
C            0.40183011227218       -1.06650791549200       -0.00833979493499
C            0.93000435980071        0.22179332855460        0.01554564870194
C            0.10172248484498        1.40768106282739       -0.00417554683872
O            0.49369380109725        2.57602154642804       -0.00207935883354
N           -1.26042009676570        1.06626611883819       -0.03120515272219
C           -2.22977569287160        2.15803033987100       -0.05030353228586
C           -1.81599266760739       -0.18792623057612       -0.04783539312520
O           -3.01145099426778       -0.37362686258040       -0.07148366724729
N           -0.92668784085797       -1.28875921200035       -0.03708324625553
C           -1.44506993320240       -2.63249128302416       -0.05939180011376
H            3.72534240468823        1.24243092282704        1.06442136240335
H            4.01055762655688        1.06433077617139       -0.67665564172845
H            2.70587261613533        2.12116600158104       -0.08540735259409
H            3.56641507002349       -1.65387302198301        0.04422882311810
H           -1.68306150089346        3.09832924291835       -0.02600602865459
H           -2.83732251126370        2.09953543079488       -0.95328859705754
H           -2.88945492348601        2.08266595474594        0.81385719230874
H           -1.12196872375039       -3.17171974758153        0.83307278841385
H           -1.09697283490960       -3.15213144984261       -0.95414052966438
H           -2.53010409351639       -2.55827144995025       -0.07392235847615
H            1.29471577037031       -3.07947481589516       -0.01701877550030
25
 energy: 9.793800077023 xtb: 6.6.1 (8d0f1dd)
C            3.24077857754189        1.19317309878362        0.08690409947423
N            2.30526385130049        0.08972905954200        0.03561005411692
C            2.57228552826644       -1.29069541876606        0.03150845702610
N            1.37443962471639       -2.06354288319248       -0.00082002068628
C            0.41234950734550       -1.07149887740658       -0.00888787738010
C            0.92613461966023        0.22447816244954        0.01376478968204
C            0.10806257742755        1.40287881963841       -0.00389413055110
O            0.48049717900598        2.58526887070205        0.00025045532223
N           -1.27147730418642        1.07559183691415       -0.03173526175100
C           -2.24049961403427        2.16687574757410       -0.05075356330977
C           -1.81149661218805       -0.17177421224662       -0.04883192795381
O           -3.01063676689204       -0.36943937311026       -0.07343982920199
N           -0.92608904717829       -1.26595077622888       -0.03738150231967
C           -1.41237142773746       -2.61455244388850       -0.05823955253352
H            3.73687842705989        1.26476442227846        1.06209754297141
H            4.01237477693108        1.09480033010632       -0.68130775270175
H            2.70688644148498        2.13381524424177       -0.07783990113429
H            3.56440469564105       -1.65795371404728        0.04727489692245
H           -1.69764356989498        3.11017618056963       -0.02662852199134
H           -2.85070706213553        2.10734839556079       -0.95283002143363
H           -2.90262689009354        2.09044402687507        0.81239210230927
H           -1.06357908884696       -3.14168053595989        0.83419273712472
H           -1.03854333136916       -3.12376241992306       -0.95096039204961
H           -2.49748437866736       -2.56920567622484       -0.07320760045453
H            1.19501359181503       -3.21025907549743       -0.02020336730240
25
 energy: 18.466012517606 xtb: 6.6.1 (8d0f1dd)
C            3.24105513787947        1.19616741824290        0.08702825852525
N            2.30700759901398        0.09013298061630        0.03423217605917
C            2.56704968974685       -1.30298408485323        0.03279672073336
N            1.35974539782095       -2.08835673141345       -0.00078033219113
C            0.41626909566770       -1.07547090667272       -0.00927168141822
C            0.92532500641692        0.22281764069192        0.01292154518729
C            0.11082498229498        1.40133312079265       -0.00344645723867
O            0.47330610254764        2.58443273894883        0.00182643043662
N           -1.27675000271667        1.08382175219072       -0.03216837387198
C           -2.24483983187557        2.17444533594145       -0.05110800583745
C           -1.81086754753765       -0.16453116921987       -0.04954459415365
O           -3.00956399611503       -0.36960438713402       -0.07486173132776
N           -0.92617092039250       -1.25337118001808       -0.03763316827999
C           -1.39652410669459       -2.60651215304399       -0.05754038591586
H            3.74129465903778        1.27086132978701        1.06016688671714
H            4.01104568676138        1.10837714548122       -0.68447840750598
H            2.70432652055324        2.13743889633795       -0.07326343935777
H            3.56620100072499       -1.65140820018673        0.04917721996153
H           -1.70475803418193        3.11905444936661       -0.02703797432169
H           -2.85580736591410        2.11310590346083       -0.95280678006941
H           -2.90754543164914        2.09623551930394        0.81171810873019
H           -1.03575740784530       -3.12476018679893        0.83576185067568
H           -1.01053224974707       -3.10801923136952       -0.94986596243457
H           -2.48141186657764       -2.58030431275562       -0.07283305053877
H            1.14929218775378       -3.28387289895213       -0.02195494036876
25
 energy: 23.996666495522 xtb: 6.6.1 (8d0f1dd)
C            3.24187143667900        1.19916161512954        0.08714378110126
N            2.30874468618904        0.09290370949927        0.03362319930008
C            2.56651992967480       -1.30209441492480        0.03412276553043
N            1.35748622843598       -2.09298353406141       -0.00043972779573
C            0.41813950217887       -1.07813365019807       -0.00953240854719
C            0.92594307801878        0.22134362518445        0.01240750094023
C            0.11197016563330        1.40185068459017       -0.00343174356053
O            0.47032556978316        2.58305003984724        0.00244734776557
N           -1.27794455319103        1.08765211500893       -0.03247647014454
C           -2.24582944757987        2.17704973525077       -0.05123881303765
C           -1.81118658538033       -0.16318273776014       -0.04978681139149
O           -3.00894880810146       -0.37093824135127       -0.07525634778108
N           -0.92605974588732       -1.24858213784890       -0.03777449646290
C           -1.39390956310861       -2.60376500111485       -0.05731312854319
H            3.74304040302706        1.27267186581264        1.05950312646689
H            4.01052435450070        1.11311078978306       -0.68537991054795
H            2.70428038128578        2.14036794261430       -0.07178626389349
H            3.56949993644064       -1.64113991486460        0.04965021922215
H           -1.70707050786322        3.12205221619407       -0.02722908245002
H           -2.85686449335511        2.11483536558258       -0.95289095135168
H           -2.90837014830790        2.09802348621770        0.81173082074486
H           -1.03155670543047       -3.11875237462902        0.83641497698331
H           -1.00622402199364       -3.10241148727420       -0.94973389543150
H           -2.47799192256923       -2.58311890182486       -0.07270013998111
H            1.13582513589350       -3.32994200611856       -0.02303963494016
25
 energy: 32.327241923627 xtb: 6.6.1 (8d0f1dd)
C            3.24360979471518        1.20365143041806        0.08723857296459
N            2.31072470463447        0.09888207545760        0.03307604903462
C            2.56761562499365       -1.29392917987948        0.03695620863524
N            1.35974680762553       -2.08670730994313        0.00064946975294
C            0.41945001784068       -1.07920684166242       -0.00982909385757
C            0.92688963539105        0.22138937783149        0.01191416783372
C            0.11236468156163        1.40487099085127       -0.00354362475937
O            0.46791835789565        2.58314760807740        0.00288512485574
N           -1.27785624158178        1.09116655296385       -0.03281307509094
C           -2.24640914923781        2.17825073443107       -0.05131580011162
C           -1.81203820365375       -0.16322272767353       -0.04981666092975
O           -3.00851282117785       -0.37151431659817       -0.07516062622522
N           -0.92572369979481       -1.24426368813149       -0.03792351049674
C           -1.39455416493867       -2.60196015390289       -0.05726334987887
H            3.74435078266788        1.27446750517756        1.05943088519231
H            4.01117500264994        1.11563092899741       -0.68543371771455
H            2.70672133924242        2.14488588796862       -0.07162897012248
H            3.57309113662194       -1.62677591350293        0.04866185768517
H           -1.70940390995360        3.12393283835041       -0.02732978568330
H           -2.85742504072866        2.11534305547677       -0.95296646506926
H           -2.90866636322974        2.09852373036697        0.81188378650694
H           -1.03259205809818       -3.11515035668207        0.83656512257946
H           -1.00716782678523       -3.09898847474854       -0.94971700555517
H           -2.47797439290773       -2.58302438697653       -0.07270205996293
H            1.12688029122019       -3.40037057792327       -0.02478358738839
25
 energy: 39.054214756132 xtb: 6.6.1 (8d0f1dd)
C            3.24589608234589        1.21107422146334        0.08677294812769
N            2.31288054448256        0.10807719250513        0.03287048670190
C            2.56756492326160       -1.28382811091894        0.04319353246073
N            1.36147174440184       -2.08006886459111        0.00464587219271
C            0.42294240625714       -1.07864191868422       -0.00941477807231
C            0.92767849609607        0.22478883307957        0.01211533417703
C            0.11312325901486        1.40980746368681       -0.00314892858924
O            0.46340734498781        2.58601707754913        0.00294361466757
N           -1.27823725542337        1.09645186255247       -0.03303743869164
C           -2.24800135394025        2.18031689078465       -0.05144293190006
C           -1.81138271288108       -0.16203457527710       -0.04985093727856
O           -3.00662102903238       -0.37166006566080       -0.07524048826510
N           -0.92408187014290       -1.23678983166577       -0.03818865413419
C           -1.39225193349026       -2.59786718971510       -0.05721754575597
H            3.74616308608323        1.27927701379213        1.05889351749608
H            4.01248903785029        1.12099750993906       -0.68604777980381
H            2.71016345771195        2.15285363231618       -0.07193955582793
H            3.57646772146046       -1.60784759583973        0.04668281801414
H           -1.71360912419151        3.12723281222767       -0.02743397782214
H           -2.85897856374633        2.11604502027060       -0.95312749665919
H           -2.91008820639277        2.09920223362686        0.81190960655024
H           -1.02910749710693       -3.10883032954278        0.83636360226697
H           -1.00319978516476       -3.09312687055655       -0.94907276884015
H           -2.47513782781143       -2.58262187795319       -0.07290121093594
H            1.10266336034273       -3.51979574464433       -0.03129292788429
25
 energy: 33.535928648503 xtb: 6.6.1 (8d0f1dd)
C            3.25194328215067        1.22814437470128        0.08634081990876
N            2.31792632816052        0.13169218288290        0.03203564300114
C            2.56060098635423       -1.25082223095572        0.05211700156965
N            1.36853982243406       -2.05019341162097        0.01363764802078
C            0.43434909866884       -1.07099921541910       -0.00928493124097
C            0.93157087793208        0.23856036542736        0.01160668575817
C            0.11570397705647        1.42531620201460       -0.00243963985232
O            0.45007862042735        2.59167477914538        0.00303301236469
N           -1.27728784204018        1.11157146923969       -0.03354177146374
C           -2.25074873743219        2.18536373038814       -0.05171642964042
C           -1.80750012706126       -0.16146006317600       -0.04983427099644
O           -2.99896050958187       -0.37349647475241       -0.07537917792302
N           -0.91761554701986       -1.21681671530570       -0.03855846855274
C           -1.38535090667512       -2.58860872241912       -0.05678793714924
H            3.74924050058117        1.28665128487312        1.05810350546028
H            4.01402579774950        1.13145805061491       -0.68726077380416
H            2.71595384215407        2.16922852509889       -0.07144143548493
H            3.57756318681610       -1.56170438204728        0.04433209457512
H           -1.72180197727056        3.13411572756028       -0.02773378535519
H           -2.86139872990072        2.11681627356116       -0.95347512684054
H           -2.91225655847224        2.10004970962300        0.81198150536816
H           -1.01843717982713       -3.09548410416067        0.83400909890584
H           -0.99213934746575       -3.08055924351654       -0.94551070828918
H           -2.46669148335001       -2.58509206243374       -0.07278962821666
H            1.03490693058424       -3.82637726057945       -0.04440901792842
25
 energy: 28.293029633965 xtb: 6.6.1 (8d0f1dd)
C            3.25439830111373        1.24165800600195        0.08721272790085
N            2.31567054570017        0.14910170001199        0.03369241299770
C            2.54459763325180       -1.21512276570869        0.05059557917084
N            1.38562570004265       -2.01257709551484        0.01591902419945
C            0.44580284138966       -1.05603077657032       -0.00819019731055
C            0.93524968150824        0.25782275783987        0.01064993584081
C            0.11382354193376        1.44613045572213       -0.00363736133048
O            0.43893637975263        2.60291456580179        0.00400208020410
N           -1.27223117951360        1.12544747212938       -0.03420833434892
C           -2.25243121412280        2.18958009983253       -0.05200274637307
C           -1.80046066571849       -0.16304562263553       -0.04964779534573
O           -2.98958182282906       -0.37136615942127       -0.07510843114149
N           -0.90728588698544       -1.20202836633185       -0.03735727205801
C           -1.37798026107230       -2.58102832662340       -0.05608004411627
H            3.75067457122593        1.29310201281665        1.05779812193314
H            4.01359814336223        1.13862350536200       -0.68683841926496
H            2.72256085777718        2.18477999833992       -0.07070913063922
H            3.56774587669025       -1.52314947174205        0.04494746294845
H           -1.73051612188626        3.14162086686790       -0.02823702273133
H           -2.86303504391996        2.11630829835887       -0.95347912319600
H           -2.91359112564089        2.09963326372085        0.81161424739446
H           -1.00640266691254       -3.08647335391905        0.83073264305389
H           -0.98031656352142       -3.07153808315486       -0.94080464759298
H           -2.45885163379669       -2.58443861412513       -0.07234205005336
H            0.97621441714361       -4.13089557831483       -0.05148774794670
25
 energy: 20.525325123049 xtb: 6.6.1 (8d0f1dd)
C            3.25427226763381        1.24878906889014        0.08743271559808
N            2.30592165717871        0.15994113195135        0.03903606790607
C            2.52960805908291       -1.16482143736636        0.03775294941791
N            1.43329472878073       -1.91654013544408        0.01197182369518
C            0.45066372607253       -1.00748503563553       -0.00656217800156
C            0.93763443040869        0.29904518381199        0.01113125207024
C            0.10037559895328        1.47241856779123       -0.00501185450849
O            0.43876007390141        2.63048198825902        0.00451095590433
N           -1.26303036867848        1.12552154168145       -0.03381051266690
C           -2.25201701212677        2.18656717781375       -0.05180393620205
C           -1.79351936714582       -0.17163286440693       -0.04927919650632
O           -2.98573187062212       -0.36132642977625       -0.07426268656536
N           -0.89513534057271       -1.20547551568445       -0.03536462536504
C           -1.37234612119523       -2.58372552782764       -0.05599161688905
H            3.74778599792550        1.29501133714189        1.05909946782187
H            4.01416175619840        1.13409611993166       -0.68528541767001
H            2.72661840794594        2.19230564014418       -0.07310703633401
H            3.54254401613634       -1.52517120889127        0.05071178156648
H           -1.73139068407725        3.14029544806063       -0.02802554153838
H           -2.86214049909962        2.11293665745624       -0.95312060310907
H           -2.91283797341213        2.09590909469880        0.81138748505773
H           -1.00420612978230       -3.09676092893706        0.82909797856854
H           -0.97905624094437       -3.08043084770943       -0.93989518637508
H           -2.45607086043408       -2.57557003818203       -0.07195774664561
H            0.93805605284505       -4.41535019902727       -0.05162042703489
25
 energy: 19.906450401570 xtb: 6.6.1 (8d0f1dd)
C            3.26038224268137        1.27244643914933        0.08625124213187
N            2.30755955543780        0.18918732057314        0.04042735928780
C            2.53771122233467       -1.12817455971848        0.03611924422141
N            1.46376463718880       -1.86407226861083        0.00855837230050
C            0.44956190761840       -0.97327252604102       -0.00602130392270
C            0.93790579886678        0.32991671815386        0.01346430776179
C            0.08839854140532        1.48702455788559       -0.00284432318353
O            0.43577326437576        2.65125654016965        0.00363114626683
N           -1.26004778672441        1.12325614036979       -0.03239492946440
C           -2.25317415910318        2.18447553231377       -0.05146516361540
C           -1.78802346476507       -0.17408324910995       -0.04851280932083
O           -2.98372496005169       -0.35267857306166       -0.07381155327875
N           -0.89162161675695       -1.21132680230451       -0.03520819221027
C           -1.37076253939055       -2.58409210886863       -0.05681659534280
H            3.74978588929217        1.30875749643881        1.06134786875809
H            4.02084450399733        1.13981487852258       -0.68382796356220
H            2.73683022600301        2.21510157948545       -0.07812321918685
H            3.54030930928941       -1.52122857379199        0.05293010903589
H           -1.73051162246275        3.13808351801384       -0.02731308324442
H           -2.86148351747221        2.11018331361453       -0.95342090710554
H           -2.91266209867497        2.09277765618723        0.81198897701634
H           -1.01218700648440       -3.10565428776955        0.82908670290742
H           -0.98727062612277       -3.08787606139349       -0.94275767656523
H           -2.45628677313479       -2.56152838185777       -0.07226094964418
H            0.89114337762535       -4.68926550960572       -0.05199274784625
25
 energy: 19.727010012490 xtb: 6.6.1 (8d0f1dd)
C            3.26440843441369        1.28743294548330        0.08769177489794
N            2.30964085283772        0.21145846154633        0.04069347723574
C            2.54904720909655       -1.11174258722350        0.03494224663517
N            1.46587991141597       -1.85245194679479        0.00695617166964
C            0.44761834793582       -0.96026503208857       -0.00594547951187
C            0.93770810447552        0.34128658550723        0.01499213697343
C            0.08410898209433        1.49246334322459       -0.00325764812652
O            0.43516128906041        2.65875699620637        0.00150653709696
N           -1.26059211316039        1.12356011232049       -0.03229315819706
C           -2.25510170259807        2.18497034425687       -0.05147653733496
C           -1.78472065229584       -0.17079123299158       -0.04836934920822
O           -2.98172308073551       -0.35002493176658       -0.07315125347484
N           -0.88948113758895       -1.21380694526804       -0.03553857970435
C           -1.36785557894372       -2.58253825125680       -0.05664274617511
H            3.75240797102519        1.31688591521368        1.06415443531298
H            4.02382648563477        1.14423590886189       -0.68175647707182
H            2.74287573793890        2.22904276024712       -0.07808739858227
H            3.54426674192466       -1.51500671260313        0.04861605411693
H           -1.73028828260986        3.13755096245175       -0.02761559969363
H           -2.86225964367372        2.10973738128484       -0.95365358543852
H           -2.91354085621258        2.09264270310456        0.81224017911460
H           -1.01338414364319       -3.10866793490481        0.82933316238676
H           -0.98873206397556       -3.09096163709417       -0.94287383988642
H           -2.45510452964456       -2.55687937385813       -0.07192935087167
H            0.85804802220083       -4.82785904511494       -0.05150125996831
25
 energy: 19.684356111365 xtb: 6.6.1 (8d0f1dd)
C            3.26428424201280        1.28662086691528        0.08705422036202
N            2.30765674851576        0.21417280357958        0.04080423684021
C            2.55043817941623       -1.10905833485453        0.03499959118060
N            1.46464783306429       -1.84773711917452        0.00629191122590
C            0.44692148049814       -0.95653400968861       -0.00567121925714
C            0.93739303670399        0.34332098685216        0.01621863963879
C            0.08294938987471        1.49413275371938       -0.00255901722977
O            0.43551255430933        2.65981893012184        0.00187356487241
N           -1.26116963002018        1.12353792754149       -0.03186078895912
C           -2.25609697383523        2.18516726860237       -0.05138640025882
C           -1.78396189830852       -0.16889931461373       -0.04834953758338
O           -2.98076639256829       -0.35117801402562       -0.07349470069887
N           -0.88760741005831       -1.21508538207188       -0.03575226336835
C           -1.36597083801603       -2.58182056873450       -0.05692334586457
H            3.75250104191009        1.31600243881284        1.06321480491514
H            4.02337602228187        1.14233232773801       -0.68234765814966
H            2.74378840294632        2.22849787117893       -0.07886670864084
H            3.54159022085551       -1.51874920382734        0.05010137746287
H           -1.73066857911829        3.13735398402506       -0.02733075844764
H           -2.86270624965313        2.10971675198012       -0.95371894164373
H           -2.91441571197042        2.09244421941887        0.81215309764935
H           -1.01174135699773       -3.10884275641289        0.82885307736481
H           -0.98695763049737       -3.09103846787603       -0.94300407653041
H           -2.45377847054168       -2.55642720491235       -0.07225104034790
H            0.85699629416857       -4.83871996554994       -0.05101415233734
25
 energy: 19.670722922143 xtb: 6.6.1 (8d0f1dd)
C            3.26380583049244        1.28617917456278        0.08757967801976
N            2.30612480031089        0.21529311402479        0.04081467708704
C            2.55174819871992       -1.10812324976806        0.03417882031028
N            1.46322234596721       -1.84639166940361        0.00557656983240
C            0.44645325064298       -0.95576310678432       -0.00574994246908
C            0.93737120391137        0.34344909775192        0.01653453757081
C            0.08280458230261        1.49438506567061       -0.00310516673418
O            0.43550529116734        2.65979321063217        0.00122451920867
N           -1.26149498108837        1.12268881845582       -0.03202872213016
C           -2.25606859087428        2.18511769801028       -0.05147269343558
C           -1.78367900275378       -0.16738409212910       -0.04842186036933
O           -2.98019972506094       -0.35268715873672       -0.07328305500327
N           -0.88672792406002       -1.21663451653877       -0.03598226079392
C           -1.36644487284238       -2.58140812203083       -0.05668876927574
H            3.75227375529463        1.31618505661514        1.06360789362589
H            4.02325643533004        1.14289719295843       -0.68155470085045
H            2.74454242717097        2.22904964284368       -0.07806059194339
H            3.54050395667023       -1.52124648096936        0.04897519509445
H           -1.72997715876506        3.13693225906476       -0.02759616146483
H           -2.86266786726120        2.10976247514887       -0.95369564876657
H           -2.91401874422191        2.09260711821930        0.81222608375081
H           -1.01305916074180       -3.10919957016785        0.82908415494847
H           -0.98853427271303       -3.09171576519033       -0.94269857732804
H           -2.45432620500261       -2.55534382271609       -0.07187975190512
H            0.86180073237716       -4.83941358077949       -0.05055031478439
25
 energy: 19.667169215108 xtb: 6.6.1 (8d0f1dd)
C            3.26381657085759        1.28549986896386        0.08712039554717
N            2.30561262561141        0.21502196590012        0.04085977031230
C            2.55147811349718       -1.10843360482704        0.03464618375326
N            1.46202231429197       -1.84622920365043        0.00561114179748
C            0.44592405206372       -0.95562418652739       -0.00559651443058
C            0.93732708010298        0.34361329584327        0.01692437988996
C            0.08298577407089        1.49461689728806       -0.00259071527468
O            0.43521292469529        2.66007975875801        0.00171147593165
N           -1.26173279463562        1.12255973619030       -0.03178785566103
C           -2.25626238651990        2.18527147367841       -0.05139486246945
C           -1.78406736628879       -0.16631774956199       -0.04837861923505
O           -2.98043635523016       -0.35279091824455       -0.07345830647467
N           -0.88702671764766       -1.21667140685397       -0.03607311408825
C           -1.36642619534151       -2.58131922214540       -0.05696810585949
H            3.75240420915313        1.31586183483367        1.06315759606170
H            4.02318210089785        1.14186974490407       -0.68212743011087
H            2.74492405830209        2.22873224883138       -0.07886835848531
H            3.53980791722645       -1.52232747019592        0.04957856833704
H           -1.73029312313575        3.13716459900215       -0.02733955566389
H           -2.86268671095868        2.10994023623812       -0.95373715888247
H           -2.91439973730221        2.09268324575757        0.81215964713901
H           -1.01288071527783       -3.10931713331224        0.82875976110725
H           -0.98814316222262       -3.09160483252969       -0.94301493093571
H           -2.45432677842415       -2.55583874155370       -0.07226958425642
H            0.86619860718673       -4.83741164804269       -0.04988989585435
25
 energy: 19.660359470146 xtb: 6.6.1 (8d0f1dd)
C            3.26365318039374        1.28516929276798        0.08769588614362
N            2.30553791831574        0.21417977528215        0.04080742877852
C            2.55053803048692       -1.10936832544117        0.03412445627414
N            1.46034687513571       -1.84641131895629        0.00502446981215
C            0.44520868070313       -0.95559548127857       -0.00586965558584
C            0.93737050629983        0.34384630422820        0.01653269980776
C            0.08357032483383        1.49462699873701       -0.00313644398900
O            0.43480186498992        2.66033003601714        0.00113722969688
N           -1.26180374125727        1.12230087286815       -0.03209792102310
C           -2.25610310936763        2.18534016071053       -0.05149916418739
C           -1.78468400740627       -0.16538695054871       -0.04843857515813
O           -2.98088805277095       -0.35290696470066       -0.07319822403971
N           -0.88779106136590       -1.21625668779855       -0.03616823153160
C           -1.36674837007576       -2.58112319007775       -0.05663733437917
H            3.75201692720604        1.31543583990908        1.06391386603458
H            4.02313984325943        1.14220710840428       -0.68158096265373
H            2.74443949189355        2.22843196658698       -0.07797804036746
H            3.53921952778695       -1.52296663024818        0.04864088915174
H           -1.73004885357671        3.13717357309852       -0.02762673816265
H           -2.86274772825908        2.10995100482056       -0.95371915200379
H           -2.91403816366472        2.09280972866723        0.81225751787086
H           -1.01294753031931       -3.10891218274799        0.82921440659738
H           -0.98853316402255       -3.09156030700471       -0.94267509525851
H           -2.45450193188716       -2.55566488189639       -0.07177463469638
H            0.87320684764097       -4.83662095265483       -0.04991476493660
25
 energy: 19.660288571345 xtb: 6.6.1 (8d0f1dd)
C            3.26387535915147        1.28536051521815        0.08701615040184
N            2.30598568002974        0.21396406569721        0.04091923471838
C            2.55002635368085       -1.10969629780644        0.03475690788534
N            1.45994233479608       -1.84638123432496        0.00565830730290
C            0.44508583193002       -0.95524294968189       -0.00556706806828
C            0.93738479685684        0.34411888210201        0.01689210824773
C            0.08355913610748        1.49469405238306       -0.00242466376389
O            0.43462972448007        2.66048310224381        0.00187699908689
N           -1.26181627882202        1.12250363136511       -0.03177519919845
C           -2.25618114842645        2.18539042102472       -0.05137451872155
C           -1.78477205581588       -0.16570698414027       -0.04836912686673
O           -2.98101690399255       -0.35271253142396       -0.07349277959219
N           -0.88796770938451       -1.21585452212819       -0.03608759973085
C           -1.36667841253318       -2.58113795785825       -0.05706577215887
H            3.75244756178896        1.31594204105773        1.06304391006573
H            4.02319580681253        1.14190206110681       -0.68230270037996
H            2.74454056142200        2.22835631011871       -0.07903782408855
H            3.53924062602923       -1.52244690770369        0.04951137815462
H           -1.73026917145705        3.13728266771861       -0.02728318340410
H           -2.86259837320369        2.11002037706329       -0.95374997731972
H           -2.91439362239046        2.09275658458898        0.81216324974239
H           -1.01305574536198       -3.10903017969584        0.82865512395842
H           -0.98820254236070       -3.09121631159542       -0.94312596647331
H           -2.45446479884288       -2.55580815242605       -0.07242764315406
H            0.87371729447852       -4.83851189415921       -0.04937543444915
