25
 energy: 0.000000000000 xtb: 6.6.1 (8d0f1dd)
C            3.23720163006194        1.16630919979326        0.08434469647475
N            2.29877817382611        0.07527477071623        0.03981603040599
C            2.58028210190900       -1.21425402444508        0.03006176031096
N            1.43813958087363       -1.93419271955128        0.00098261760884
C            0.39035688448383       -1.05887472636071       -0.00790371836672
C            0.93510056364412        0.21347819449412        0.01709077491437
C            0.09450143893243        1.40504303904423       -0.00410947031874
O            0.49712751527797        2.54126714362870       -0.00342325688240
N           -1.25076640035757        1.06271879480407       -0.03085478223738
C           -2.21907211982101        2.15522099834493       -0.05001256985998
C           -1.81739487048744       -0.20012725993278       -0.04692818574614
O           -2.99983886758376       -0.37846417018721       -0.07008878229737
N           -0.92618586207120       -1.30210215599479       -0.03682761578324
C           -1.46982264913417       -2.64643102187190       -0.06029820460571
H            3.71247264356769        1.21471455160235        1.06488849150277
H            4.00791497605742        1.03430808813993       -0.67357694370751
H            2.69910007168542        2.09770118228144       -0.09130154882931
H            3.56654120610678       -1.63682992603973        0.04233140067262
H           -1.67107961066214        3.09322851271934       -0.02552706933167
H           -2.82428953597071        2.09428624779827       -0.95318082946668
H           -2.87644029173232        2.07745725625962        0.81450067533302
H           -1.17061996399332       -3.19584890659852        0.83242232437030
H           -1.14560257411436       -3.17511610292205       -0.95688275822323
H           -2.55549792440841       -2.55659984320617       -0.07459039797972
H            1.38130855184625       -2.94313852034425       -0.01389874181052
25
 energy: -2.003699483597 xtb: 6.6.1 (8d0f1dd)
C            3.23969737571096        1.18319777742938        0.08610113804308
N            2.30342449403649        0.08753650560714        0.03804067204204
C            2.58242635916016       -1.25327948697092        0.03028277659093
N            1.40943314337651       -1.99421329553170       -0.00007246918445
C            0.40075969666114       -1.06520290054610       -0.00836864318951
C            0.93004949250148        0.22153642440357        0.01548422971967
C            0.10188808315493        1.40615058334266       -0.00429371863488
O            0.49466746629975        2.57419288059099       -0.00230098916908
N           -1.26049740132465        1.06456906968941       -0.03120804836255
C           -2.22895275657136        2.15682329377408       -0.05026274097919
C           -1.81723720020923       -0.18915565869000       -0.04783140249474
O           -3.01289003754305       -0.37434229457083       -0.07143431133884
N           -0.92789639536357       -1.28990494969275       -0.03711200206399
C           -1.44737743548595       -2.63367168973711       -0.05946017147282
H            3.72508979217495        1.24038962280855        1.06479391113164
H            4.01055178436634        1.06221901769883       -0.67676431540087
H            2.70447375069462        2.11834733974912       -0.08554624660212
H            3.56717130918594       -1.65672671829860        0.04409755071675
H           -1.68072769089748        3.09618009179072       -0.02594298915622
H           -2.83637205153660        2.09899404355600       -0.95336106527970
H           -2.88851547201681        2.08214372036925        0.81403265804444
H           -1.12547414668894       -3.17361941753823        0.83303248703942
H           -1.10046737996835       -3.15398867594470       -0.95431044243571
H           -2.53247045206398       -2.55829907973515       -0.07398215967306
H            1.30146034028291       -3.06084760138158       -0.01657981174293
25
 energy: 5.328647220915 xtb: 6.6.1 (8d0f1dd)
C            3.24123697303904        1.18975699741681        0.08705379148236
N            2.30641612579165        0.08880658948308        0.03544484445719
C            2.57565109883104       -1.28811018724427        0.03137010945411
N            1.37729837526751       -2.04661326641001       -0.00058649572219
C            0.40931754822761       -1.06856904784357       -0.00894994673450
C            0.92624952782206        0.22425840653035        0.01364542159310
C            0.10841424200321        1.40021206084106       -0.00416233276246
O            0.48275593190525        2.58192880304969       -0.00027695853913
N           -1.27142324080372        1.07188723378784       -0.03174382164701
C           -2.23865434772696        2.16432371878291       -0.05067137198668
C           -1.81416591706218       -0.17458829932722       -0.04886832594396
O           -3.01340596768366       -0.37073340790567       -0.07338577755057
N           -0.92867788709075       -1.26901243105564       -0.03745545839683
C           -1.41684856105208       -2.61765621076661       -0.05837307052446
H            3.73646102312950        1.26005573953704        1.06255702058351
H            4.01212634131015        1.09031805813038       -0.68150340452844
H            2.70407287948109        2.12773542413004       -0.07774581743127
H            3.56417904506630       -1.66662628956598        0.04699158381093
H           -1.69265558442384        3.10568711211297       -0.02649554698160
H           -2.84871742718080        2.10636812295439       -0.95289734165504
H           -2.90065166558512        2.08948766390413        0.81266404765617
H           -1.07018671238034       -3.14591904832268        0.83416076521598
H           -1.04510140440664       -3.12796145479930       -0.95128896293583
H           -2.50211171456601       -2.56994612101591       -0.07333548748155
H            1.21063598602392       -3.16606156423180       -0.01911356728453
25
 energy: 10.229551506345 xtb: 6.6.1 (8d0f1dd)
C            3.24108565545575        1.19019696279379        0.08709497754921
N            2.30781914886316        0.08720268683713        0.03404473505358
C            2.57060074707310       -1.29951094769381        0.03247778323366
N            1.36440002765096       -2.06436907950389       -0.00044226909273
C            0.41153511098237       -1.07112898162575       -0.00930305970474
C            0.92556159429685        0.22271948985630        0.01283686158609
C            0.11099691845298        1.39846309139513       -0.00381616406891
O            0.47655160588048        2.58048219743689        0.00107192787727
N           -1.27619576910087        1.07854011444428       -0.03215738308035
C           -2.24205809212661        2.17083228520859       -0.05100001303049
C           -1.81437750606699       -0.16863750330273       -0.04958299240271
O           -3.01296873357444       -0.37112132527201       -0.07478654015323
N           -0.92942795226586       -1.25847604485462       -0.03770725856860
C           -1.40260919832298       -2.61158156244177       -0.05772967782625
H            3.74020886512383        1.26297593846258        1.06061049145605
H            4.01032603957986        1.10094194599879       -0.68466628909507
H            2.70055783088436        2.12826319303597       -0.07308620373558
H            3.56424824579535       -1.66508599629679        0.04873345966398
H           -1.69782815861896        3.11293999369529       -0.02685798169362
H           -2.85280031393710        2.11163313754660       -0.95289467502038
H           -2.90456611154020        2.09478404477938        0.81206797706049
H           -1.04525739860958       -3.13181979423566        0.83563810075222
H           -1.01995504184949       -3.11499886844178       -0.95027467940385
H           -2.48779842322407       -2.58167556885917       -0.07302408823341
H            1.17416557713433       -3.21254080679070       -0.02021314297534
25
 energy: 12.146992691874 xtb: 6.6.1 (8d0f1dd)
C            3.24109931692103        1.19059189480347        0.08709867252097
N            2.30877989817219        0.08720657575771        0.03344607647578
C            2.56946593888686       -1.29959049815603        0.03343458685417
N            1.36301051114650       -2.06625564129756       -0.00014824715303
C            0.41204260105965       -1.07302427917014       -0.00953375807634
C            0.92599020435380        0.22109969668100        0.01237830225667
C            0.11200435044447        1.39856156914523       -0.00381976255454
O            0.47462067833355        2.57894907736858        0.00163483380716
N           -1.27702100856468        1.08100582644417       -0.03242448206270
C           -2.24239516564331        2.17278487991614       -0.05112194227157
C           -1.81517925351395       -0.16792136853587       -0.04985274678478
O           -3.01290431566764       -0.37222026414687       -0.07523090877619
N           -0.92984266928032       -1.25547684221033       -0.03784530083427
C           -1.40059348706106       -2.61031328216259       -0.05752773749522
H            3.74120785577227        1.26223165470622        1.05987098457373
H            4.00913944329794        1.10336938715761       -0.68568738264926
H            2.69944017986908        2.12840173779681       -0.07147064169144
H            3.56576294640774       -1.65969303548975        0.04920282020528
H           -1.69889735730526        3.11505025192306       -0.02702097676588
H           -2.85320335810034        2.11323897433078       -0.95298564844042
H           -2.90478551771967        2.09644065419680        0.81207075943558
H           -1.04198899775210       -3.12783883636129        0.83628000105863
H           -1.01657037152224       -3.11140846928477       -0.95018408941234
H           -2.48523188203124       -2.58527383820169       -0.07292433205789
H            1.16826412743293       -3.23088722303869       -0.02060518401484
25
 energy: 13.793214386988 xtb: 6.6.1 (8d0f1dd)
C            3.24132254606690        1.19107417873851        0.08711260557709
N            2.30952993879741        0.08777505903117        0.03291417740205
C            2.56913997499645       -1.29685029957714        0.03490010905539
N            1.36455211090636       -2.06340576487991        0.00032981002120
C            0.41200534717122       -1.07435745088497       -0.00981794918191
C            0.92642157455154        0.21998559010221        0.01188163172562
C            0.11268307729998        1.39939302502397       -0.00396810907828
O            0.47382295968409        2.57829958192654        0.00204057955832
N           -1.27679871485620        1.08220015056899       -0.03268311419493
C           -2.24220526797775        2.17318909557788       -0.05118214364651
C           -1.81610516006559       -0.16829386044744       -0.04995612698624
O           -3.01305045736076       -0.37271087907398       -0.07529447570002
N           -0.93023661955453       -1.25395191011674       -0.03797433727207
C           -1.40149585670509       -2.61003660104692       -0.05747860345855
H            3.74164764960137        1.26127179460773        1.05958961897629
H            4.00865537282108        1.10386428722968       -0.68602723936870
H            2.69966073803413        2.12880227504624       -0.07079450690838
H            3.56708112199740       -1.65374721791427        0.04883995256569
H           -1.69946325014756        3.11575220742172       -0.02711154038480
H           -2.85308897985626        2.11363442206963       -0.95302732090206
H           -2.90444710825098        2.09684726980818        0.81218157025642
H           -1.04325948758634       -3.12640745775193        0.83651189059860
H           -1.01779607725986       -3.11014953228478       -0.95023027063403
H           -2.48574527974103       -2.58609700578436       -0.07290584740157
H            1.16938451537023       -3.24705235521797       -0.02081646447136
25
 energy: 14.563389428674 xtb: 6.6.1 (8d0f1dd)
C            3.24147365730509        1.19138566511424        0.08712667850096
N            2.30954582783674        0.08832124701845        0.03275481073442
C            2.56930801978352       -1.29487122875451        0.03623089367306
N            1.36640730762191       -2.05967347919817        0.00065087131504
C            0.41165392958094       -1.07402182960258       -0.00998055317731
C            0.92633835456741        0.22055756019453        0.01170582025820
C            0.11264085393460        1.40021159032956       -0.00407627912250
O            0.47417934422933        2.57914735729631        0.00206009920333
N           -1.27633840112002        1.08192336001332       -0.03276604387037
C           -2.24206706070749        2.17259545677181       -0.05117188835999
C           -1.81634947156798       -0.16871226833288       -0.04988496482611
O           -3.01324179139210       -0.37215152119834       -0.07505555836125
N           -0.93033798398156       -1.25407086439909       -0.03802147628312
C           -1.40271560606276       -2.61033433683394       -0.05755067724181
H            3.74140204041327        1.26133733938757        1.05983658105664
H            4.00907757779671        1.10323039874108       -0.68569775833569
H            2.70042316530688        2.12925176730901       -0.07119816349647
H            3.56701590879716       -1.65253244909607        0.04768403263484
H           -1.69958294832133        3.11538540050575       -0.02708503825912
H           -2.85300563239889        2.11317969158335       -0.95300951649519
H           -2.90429927669553        2.09634268718642        0.81223280691470
H           -1.04497731455114       -3.12716462241543        0.83633579557316
H           -1.01953930531052       -3.11085160136994       -0.95027514412722
H           -2.48705037060238       -2.58481544170081       -0.07295012330524
H            1.17225384347435       -3.25464127637762       -0.02086130845567
25
 energy: 14.952109454750 xtb: 6.6.1 (8d0f1dd)
C            3.24150805347248        1.19166374190539        0.08715563687341
N            2.30931187718173        0.08869060841000        0.03284215041701
C            2.56952069079826       -1.29416325778906        0.03757641667989
N            1.36750287415023       -2.05710519150094        0.00081422772195
C            0.41136010044958       -1.07310427987064       -0.01008369758901
C            0.92608378953223        0.22179291135686        0.01174271941346
C            0.11231204006130        1.40072430024059       -0.00412194527284
O            0.47474309966612        2.58022940927518        0.00187425687431
N           -1.27614651955543        1.08137868235748       -0.03276108380819
C           -2.24210332714550        2.17213001270746       -0.05114789515867
C           -1.81616655773517       -0.16881974373389       -0.04980335392460
O           -3.01330487743705       -0.37146926495274       -0.07482517092659
N           -0.93029022782039       -1.25472263525348       -0.03805435251084
C           -1.40320332245638       -2.61062273629129       -0.05762986693380
H            3.74101429363178        1.26196690172789        1.06016033608205
H            4.00960332468426        1.10275930830223       -0.68526186406914
H            2.70085972105495        2.12964506982227       -0.07178256969742
H            3.56646596195166       -1.65379363916254        0.04615658738506
H           -1.69948946140337        3.11494228693589       -0.02702969630311
H           -2.85303717403264        2.11280789355148       -0.95299319216442
H           -2.90436647322491        2.09591160504433        0.81222954825387
H           -1.04570741834222       -3.12813667571301        0.83614190262848
H           -1.02029566281564       -3.11175294925286       -0.95030303248513
H           -2.48772135142681       -2.58357960771161       -0.07299467611605
H            1.17376121469713       -3.25834414823298       -0.02086748922237
25
 energy: 15.106246489173 xtb: 6.6.1 (8d0f1dd)
C            3.24148687767476        1.19191001713593        0.08721187409289
N            2.30908869252913        0.08885869825094        0.03312984641146
C            2.56965808380565       -1.29433381237138        0.03919242087588
N            1.36779179175881       -2.05608076085036        0.00085166746918
C            0.41124861362204       -1.07225891472010       -0.01019874038000
C            0.92591418085064        0.22293906871202        0.01187505990249
C            0.11195477020172        1.40088028395160       -0.00415360165722
O            0.47512282363289        2.58090077104311        0.00160254758751
N           -1.27624307199290        1.08102950456595       -0.03272664962587
C           -2.24224377470606        2.17206897252080       -0.05113037832267
C           -1.81579995808479       -0.16864044697485       -0.04978556690822
O           -3.01319750244188       -0.37114395864560       -0.07472170110111
N           -0.93019145447616       -1.25544527162242       -0.03813485534366
C           -1.40306463487770       -2.61075255751194       -0.05768313115276
H            3.74077170823095        1.26267942642507        1.06035972012937
H            4.00988460851750        1.10269875067344       -0.68496005384955
H            2.70086209022629        2.12988659072415       -0.07215619796675
H            3.56597598427641       -1.65563848527473        0.04434308730368
H           -1.69926386354143        3.11469901503772       -0.02699215229992
H           -2.85311186932443        2.11274810283326       -0.95299262062521
H           -2.90450673066151        2.09581404181773        0.81220599531799
H           -1.04565430932933       -3.12870615071850        0.83605706407961
H           -1.02025608894922       -3.11233794167931       -0.95031600575274
H           -2.48770417466382       -2.58308474478453       -0.07302038008225
H            1.17369187565861       -3.25966159636596       -0.02082335195485
