25
 energy: -5.924051670715 xtb: 6.6.1 (8d0f1dd)
C            3.24922316512404        1.20607033123654        0.09510845760977
N            2.32983129306176        0.11117928250508        0.02371794647956
C            2.63252034232490       -1.24022909687660        0.03941838243405
N            1.44780545167384       -1.93881774742098        0.01256693081743
C            0.41680594851944       -1.07464731191222       -0.00994564833773
C            0.93639676530993        0.21976334563797        0.00138204835147
C            0.12538400804043        1.37083765419815       -0.01394130192545
O            0.47726054347051        2.55506504232347       -0.01345991848960
N           -1.26351386171159        1.02254126657753       -0.03420573379835
C           -2.21369939303605        2.12028824273324       -0.04957331000749
C           -1.80646412925365       -0.22060275884232       -0.04888724703372
O           -3.00738916535218       -0.41048980827804       -0.07063427373977
N           -0.92840655585713       -1.32580996000059       -0.03721327979550
C           -1.54905442745714       -2.63410087632720       -0.06200498445711
H            3.75108122712527        1.24305607871341        1.06782208291151
H            4.01147285328640        1.12786590181380       -0.68526945088348
H            2.68383413013065        2.12943734180415       -0.03813516308899
H            3.60589552248009       -1.67061382078607        0.04608066172231
H           -1.64236529966644        3.04681843676480       -0.02649190298779
H           -2.82071083418989        2.06816023662021       -0.95295595887330
H           -2.86625986132875        2.05148289832678        0.81992837278611
H           -1.30404448777714       -3.21718866539619        0.82760140297760
H           -1.28368050077904       -3.19229521949987       -0.96190048216506
H           -2.62366668160677       -2.45695099799575       -0.07257286712125
H            1.39047342699410       -2.94230645586501        0.01592424745119
