25
 energy: 42.693921520821 xtb: 6.6.1 (8d0f1dd)
C            3.39674299586114        1.71303888228574        0.13014584419252
N            2.75699918120736        0.42148818095998        0.04375929518981
C            3.24909810617144       -0.80294032838201        0.15117235031011
N            2.25051905941834       -1.72183451615700        0.11274617661985
C            1.03884774520297       -1.05237495877537       -0.01283637346681
C            1.40613731454312        0.29775649046671       -0.07805572790200
C            0.42605691426962        1.32960681840129       -0.16392513201326
O            0.67800509966153        2.52826166604839       -0.22536050224183
N           -0.83499551577264        0.80982937936147       -0.12540669730447
C           -1.91355840401316        1.77500495900474       -0.05468537942984
C           -1.18322892608999       -0.57335428087853       -0.05479243667928
O           -2.36652760816367       -0.80923840588479       -0.00379149221174
N           -0.19005491856304       -1.51016021361936       -0.02839890683028
C           -3.99414236107246       -3.27308291960981       -0.16553688136925
H            4.28382835181496        1.67312563821436        0.75231855720487
H            3.65126698518824        2.10763450977008       -0.85314121689235
H            2.67632305190314        2.42436739879742        0.54050131772577
H            4.28465617481603       -1.04429199686634        0.24075450386693
H           -1.43975071399288        2.75400075082009       -0.09661126346902
H           -2.59810597764094        1.62713539424878       -0.88728832715171
H           -2.45456170610353        1.64328776244818        0.88201227586182
H           -4.06656546711178       -3.90551687401114        0.68620118355269
H           -4.16462854103329       -3.63590435288751       -1.15032177184304
H           -3.88005638743306       -2.22402221660878       -0.01928564265057
H            2.39525255852714       -2.71913726310845        0.21314495330671
