25
 energy: 51.095796416138 xtb: 6.6.1 (8d0f1dd)
C            3.22647524518067        1.39145645091665        0.12688015179057
N            2.44812923829313        0.16769447252582        0.00088561611746
C            2.81293096638622       -1.12261544893836        0.07067585609444
N            1.70090907795630       -1.91987885607114        0.05243839773291
C            0.55998561702283       -1.14150093143174       -0.03899258558851
C            1.06846789347685        0.17087001927237       -0.07933928681498
C            0.21684182394452        1.31868010949545       -0.09644499272913
O            0.56413719981070        2.49556360505229       -0.12708707405509
N           -1.10056085773874        0.94635125930430       -0.07064211893133
C           -2.08473104154469        2.01496987699658       -0.05200511635556
C           -1.60089418370045       -0.35821632959976       -0.06343137406688
O           -2.81805296436012       -0.38718634854819       -0.04054633258945
N           -0.74780925842614       -1.44627429026880       -0.06152395493705
C           -2.46826748105872       -2.95440671033444       -0.10817843704168
H            3.93184256694963        1.34988586159628        0.96049216856825
H            3.79872968246650        1.63880231466493       -0.77648122124719
H            2.51640605908924        2.20746285669010        0.30760277672019
H            3.81564794814884       -1.49761925765112        0.12043922472316
H           -1.51754030512395        2.94161798976589       -0.04297394819069
H           -2.71767976907923        1.95300362095311       -0.93477668908221
H           -2.70343717823418        1.93673670020001        0.83983802491012
H           -2.28573037578100       -3.49379899680417        0.78654043287644
H           -2.30855185390180       -3.37436024279779       -1.06891428983211
H           -3.11032715720830       -2.12237772310848       -0.05101214754444
H            1.74454035229593       -2.92470672502566        0.11960914209923
