72
 energy: -99.348800844694 gnorm: 0.002155852569 xtb: 6.6.1 (8d0f1dd)
N           -1.72267151958274        2.86748627209999        2.09879642697447
C           -1.83013509629036        2.04186942595129        1.16593202273268
C           -3.05289449304595        1.89776724617157        0.30125177464170
C           -3.52887268147589        0.45433334504538        0.34490096071408
C           -4.46977950748551       -0.00387240531243       -0.57943417905835
C           -4.95051638732301       -1.30228716573079       -0.54032156680990
O           -5.86341683451595       -1.82293786000366       -1.38854245555880
C           -6.47311807489797       -0.98732493614099       -2.34332485793130
C           -4.47438269667533       -2.19582784748716        0.45602033309327
O           -4.99012479548755       -3.44223937357073        0.41480968668574
C           -4.63430978494893       -4.36133481729505        1.42058222163858
C           -3.54836276859354       -1.73238184441977        1.37649382847730
C           -3.08801602540389       -0.42394849771225        1.32323152775107
C           -2.60540598015774        2.28504070823028       -1.13440130717324
C           -1.71071397705353        1.25046762593966       -1.83100661245470
C           -0.31058552205728        1.27242796566359       -1.33548148060045
N            0.51149440356162        0.22327317694345       -1.31102835959244
C            1.76361645921292        0.30866648873515       -0.85410819289376
C            2.77146227036097       -0.78712311228095       -0.92143960675922
C            4.16262569517663       -0.39791910202065       -0.50724059998670
C            4.69122473482894        0.94411820105005       -0.87062771029423
C            6.11554673292988        1.16610097878533       -0.50111863919080
C            6.86998493469485        0.23255922748780        0.12926880455970
O            8.15651344408827        0.36601986255455        0.50726094934146
C            8.81822343108191        1.58385390188172        0.25124221130015
C            6.29931813957393       -1.05390131171411        0.44545425633621
O            7.13091340222429       -1.91183871375216        1.04099872928323
C            6.70083914024986       -3.21964842406844        1.34434426436336
C            4.96207960306168       -1.31460380562227        0.11239825224517
C           -0.01123890863697       -1.05472227006253       -1.76433402790391
C           -4.24007065122481        2.80510369792962        0.73966488699243
C           -4.71671697043650        2.45846564860150        2.14810549270492
C           -3.92785650939397        4.29696559734717        0.65621640155737
H           -4.84154158433367        0.67022015331609       -1.33330807359529
H           -6.99073609130659       -0.14771974750653       -1.86961703618278
H           -7.19963394238796       -1.61399683294684       -2.85700039764640
H           -5.74724440777380       -0.60786350727359       -3.07002508384644
H           -4.90674244995370       -3.99355381618755        2.41431976354565
H           -5.19915414334189       -5.26573873280242        1.20332978653795
H           -3.56366661195685       -4.58910286903530        1.39670190986147
H           -3.18527848984699       -2.38045053503293        2.15755256282754
H           -2.39442486828223       -0.09178706523531        2.07997173515700
H           -3.49756221194375        2.43226531145168       -1.74270458393698
H           -2.07899253038836        3.23868492019140       -1.08964781647360
H           -2.16063959754792        0.26339550717481       -1.72262837570321
H           -1.71124985203218        1.49126581465097       -2.90350671500950
H           -1.01717971505845        1.36485458306948        0.85249192602333
H            0.11765138075461        2.22758926704209       -1.07630477579882
H            4.08806902653716        1.72671843249624       -0.39162802751559
H            2.05231727965217        1.26788397097069       -0.46501862780452
H            2.83664766701687       -1.15691114693065       -1.95782666662340
H            2.46451976802510       -1.64174924397386       -0.30372911098243
H            4.55977825495279        1.11199308520459       -1.94959489994486
H            6.52061797826665        2.13210719171141       -0.75496856901438
H            8.34611105866562        2.41355271944844        0.78565836007723
H            8.84636608555079        1.80668267018943       -0.81927862892567
H            9.83258153014309        1.44637316072214        0.61924161195372
H            7.56311404389517       -3.71462185870801        1.78665773439931
H            5.87786327379285       -3.21370114778852        2.06511835503044
H            6.39664420982524       -3.75923669079765        0.44255569638973
H            4.55311143131402       -2.28583305532849        0.34993008392815
H           -0.38199065291159       -0.96429920590581       -2.78457296746528
H           -0.83270757303342       -1.36742458474552       -1.11797666704174
H            0.75709707330961       -1.81866970793008       -1.73719060852618
H           -5.06154523757103        2.59059640667993        0.04569263911015
H           -3.93883499009886        2.68444925141368        2.87065142443123
H           -4.97941581229362        1.40614395858972        2.22681740142933
H           -5.59581396111908        3.04919020506582        2.39160456555211
H           -3.07664840643012        4.53671665288077        1.28550806999249
H           -3.72329747542655        4.61345241910943       -0.36297207422210
H           -4.78636618962594        4.86038689096968        1.01264741338604
H           -0.83996087640498        2.89966881505482        2.59975007403718
