  72
        -99.25282157
 N         -1.7778630756        2.7180589766        2.5042453318
 C         -1.7387312421        2.1096907527        1.4123617600
 C         -2.9045611842        2.0096500792        0.4603576333
 C         -3.4359832752        0.5807592804        0.4477622884
 C         -4.3977627293        0.2117755684       -0.4637506757
 C         -4.9331077932       -1.0480653220       -0.5502694385
 O         -5.8979734933       -1.4079346076       -1.4202637260
 C         -6.4140574267       -0.3708391332       -2.2226982285
 C         -4.4468225410       -2.0576265223        0.3395149505
 O         -5.0016347547       -3.2759313977        0.1946156637
 C         -4.6672579360       -4.2938649131        1.1089870375
 C         -3.4797665712       -1.6964183251        1.2672281100
 C         -2.9837374081       -0.4006061294        1.3292273944
 C         -2.3760810620        2.3543464967       -0.9564974872
 C         -1.4919711294        1.2656847683       -1.5894702113
 C         -0.1434101107        1.1656501162       -0.9889990640
 N          0.4834728469        0.0329414724       -0.6910369216
 C          1.8722560864        0.0461459957       -0.2962880363
 C          2.8056787345       -0.3428000451       -1.4590376562
 C          4.2385931988       -0.2410275112       -1.0163619829
 C          4.9297434719        0.9537404408       -1.1330686501
 C          6.2421343284        1.0602927524       -0.6991627261
 C          6.8892386948       -0.0284639012       -0.1330079859
 O          8.1570613555       -0.0409021147        0.3192923848
 C          8.9388927898        1.1257928047        0.2053198108
 C          6.1864158023       -1.2582532388       -0.0044238687
 O          6.8896774760       -2.2639993113        0.5537209425
 C          6.2900490598       -3.5294989373        0.6943610176
 C          4.8748246443       -1.3403213749       -0.4443894488
 C         -0.1530067158       -1.2543366427       -0.8350642086
 C         -4.0427254564        2.9649260463        0.8641418806
 C         -4.7585785563        2.5445873676        2.1250740007
 C         -3.6798890236        4.4311601858        0.8761296543
 H         -5.5946712234        2.7804385300       -0.9052073574
 H         -6.8159387820        0.4372592790       -1.6037066439
 H         -7.2078987550       -0.8108940180       -2.8213999629
 H         -5.6370950463        0.0390578992       -2.8760751525
 H         -4.9014586567       -4.0013125192        2.1369364905
 H         -5.2774464408       -5.1499176232        0.8282894515
 H         -3.6085341530       -4.5641146452        1.0388496658
 H         -3.1055867344       -2.4253157159        1.9691057187
 H         -2.2529355935       -0.1525249063        2.0851698394
 H         -3.2410589067        2.4929368375       -1.6050390552
 H         -1.8183840055        3.2907413754       -0.9181973570
 H         -2.0190733040        0.3138811681       -1.5623923673
 H         -1.3628750871        1.5419849815       -2.6441184159
 H         -0.8417956671        1.6065722548        1.0098038111
 H          0.4352456632        2.0736405349       -0.9032602628
 H          2.0159956946       -0.6518158279        0.5330819482
 H          2.1400307706        1.0466561975        0.0497416536
 H          2.6250300868        0.3346438321       -2.2953371953
 H          2.5828975257       -1.3598578661       -1.7834654643
 H          4.4519562385        1.8133827921       -1.5780348213
 H          6.7563395689        2.0005932906       -0.8113117592
 H          8.5115892850        1.9525052591        0.7810693622
 H          9.0554196039        1.4291532347       -0.8393898592
 H          9.9124602055        0.8658277174        0.6162957109
 H          7.0513243646       -4.1651506786        1.1423358145
 H          5.4184938245       -3.4896714109        1.3558161420
 H          5.9966298073       -3.9448675333       -0.2747397775
 H          4.3359531336       -2.2710375704       -0.3592249551
 H         -0.3346711589       -1.4904203151       -1.8858020149
 H         -1.1074047535       -1.2703512380       -0.3030068422
 H          0.4910179880       -2.0215734768       -0.4130301506
 H         -4.8822855673        2.8474096509       -0.0504613599
 H         -4.0640002594        2.6147822974        2.9623189314
 H         -5.1186488372        1.5207505323        2.0595356120
 H         -5.6018445898        3.2017176423        2.3214647675
 H         -2.9278686382        4.6061569756        1.6453567405
 H         -3.2918904759        4.7701998687       -0.0804037292
 H         -4.5548720036        5.0284964528        1.1196702723
 H         -0.9314227442        2.7376531793        3.0641384822
