  72
        -99.29459139
 N         -1.6981077297        2.8739113311        2.4982416282
 C         -1.7104840885        2.1437852321        1.4857828185
 C         -2.8763992001        2.0090584846        0.5468713910
 C         -3.3487977869        0.5624427211        0.5235906769
 C         -4.1682589357        0.1175505625       -0.4889494532
 C         -4.6748500580       -1.2192811568       -0.5618704341
 O         -5.3912878987       -1.6068328419       -1.4963168151
 C         -7.8999618952        0.0554895501       -3.7267432463
 C         -4.2846812799       -2.1065802499        0.5408625626
 O         -4.7900494339       -3.3412477093        0.4470057174
 C         -4.5448579938       -4.2846344353        1.4634650792
 C         -3.4674957205       -1.6337303826        1.5523800632
 C         -3.0000445252       -0.3258228187        1.5487229820
 C         -2.3436663282        2.4370246572       -0.8461060126
 C         -1.4552186763        1.3965638465       -1.5524781038
 C         -0.1187298031        1.2332689517       -0.9443065051
 N          0.4732721462        0.0777757594       -0.6909531467
 C          1.8605434319        0.0320232392       -0.2911833412
 C          2.7795731327       -0.3761375098       -1.4596729150
 C          4.2176409237       -0.2749970060       -1.0330629491
 C          4.9060536853        0.9210641909       -1.1635359354
 C          6.2205397723        1.0344179044       -0.7396515000
 C          6.8745813586       -0.0489773525       -0.1695354867
 O          8.1414441987       -0.0530244951        0.2800276447
 C          8.9139654647        1.1213164762        0.1764261009
 C          6.1771009645       -1.2824797531       -0.0335236469
 O          6.8877528735       -2.2817562939        0.5223185037
 C          6.2975746937       -3.5510651874        0.6731222322
 C          4.8617497663       -1.3705163466       -0.4635902449
 C         -0.2043998232       -1.1850802934       -0.8720734623
 C         -4.0979787694        2.8955156238        0.9343470752
 C         -4.6736117035        2.4979930478        2.2913477030
 C         -3.7862308842        4.3893745125        0.9274023590
 H         -4.4878180591        0.7708914637       -1.2858032933
 H         -8.3710255845        0.7791609955       -3.0957609309
 H         -8.1163885539       -0.9863133551       -3.6010639070
 H         -7.1928563148        0.3675075664       -4.4656840915
 H         -4.9269924725       -3.9390822172        2.4280730288
 H         -5.0773970948       -5.1843903271        1.1628744235
 H         -3.4770123750       -4.5065805722        1.5526548068
 H         -3.1909311165       -2.2793246757        2.3725464253
 H         -2.3873147782        0.0104130837        2.3710175206
 H         -3.1958242205        2.6387493830       -1.4941791670
 H         -1.7849131081        3.3672823111       -0.7342354995
 H         -1.9874629982        0.4501887520       -1.6233071884
 H         -1.2988005289        1.7687314599       -2.5733373944
 H         -0.8389074492        1.5535564235        1.1424932032
 H          0.4760842239        2.1241422184       -0.7998386137
 H          1.9752988850       -0.6816620797        0.5290616168
 H          2.1658321784        1.0172403101        0.0672348919
 H          2.5949261381        0.2940707339       -2.3009507298
 H          2.5492355348       -1.3949225952       -1.7725923722
 H          4.4228760188        1.7760649775       -1.6114585781
 H          6.7316450316        1.9751228944       -0.8618045801
 H          8.4715770088        1.9430157697        0.7477119978
 H          9.0400903692        1.4266716793       -0.8664693956
 H          9.8848572497        0.8700709986        0.5988903174
 H          7.0642382018       -4.1774703075        1.1248825611
 H          5.4266472262       -3.5126973576        1.3351432194
 H          6.0065679101       -3.9752085304       -0.2927378073
 H          4.3272734471       -2.3029909990       -0.3710079070
 H         -0.4412477561       -1.3597720892       -1.9229505775
 H         -1.1330891505       -1.2046596979       -0.2969722677
 H          0.4369196132       -1.9896454011       -0.5230455969
 H         -4.8649596483        2.6998854295        0.1756865635
 H         -3.9510330975        2.6957593841        3.0772005024
 H         -4.9428329389        1.4446561756        2.3120333650
 H         -5.5687792946        3.0811950919        2.4909391414
 H         -2.9972165631        4.6118085373        1.6394455193
 H         -3.4913703399        4.7399985767       -0.0579070068
 H         -4.6759322052        4.9394600429        1.2228263340
 H         -0.8463890081        2.9189842982        3.0482826175
