72
 energy: -99.685314589816 xtb: 6.6.1 (8d0f1dd)
N           -1.64496647617517        2.98114226573572        2.29785595866884
C           -1.60640225418920        2.23154793316483        1.28703945856922
C           -2.74276052910686        2.09445551375611        0.30451675100514
C           -3.31600027676931        0.67603853232373        0.39016750319556
C           -4.26765014120513        0.21849582246290       -0.52364050898757
C           -4.81097082831162       -1.06632136176221       -0.47697993136623
O           -5.78011423740219       -1.46888874918604       -1.35632281376985
C           -6.28111005975667       -0.56584255024680       -2.31804770250730
C           -4.36023342858518       -2.01283738657328        0.50629952960128
O           -4.77070728918922       -3.34843424149291        0.42633783205442
C           -4.70771081398539       -4.38559526534289        1.46004957539054
C           -3.46470366851031       -1.50752827863852        1.43773451187156
C           -2.95259019923748       -0.21167076256956        1.38813709248176
C           -2.13715208111640        2.36157532552577       -1.10276679448689
C           -1.27574218525710        1.22500741564182       -1.68627631060972
C            0.05116041261242        1.13018362273658       -1.03655869038457
N            0.63618177446777       -0.04500568537244       -0.60453988195547
C            2.01790803934075       -0.05246087672976       -0.23432008638442
C            2.97063633180668       -0.55937862068107       -1.34509800727995
C            4.39285057147093       -0.45163143637755       -0.88837428493490
C            5.11010438673168        0.71603938385954       -1.07598737940785
C            6.41450907198112        0.83294081457699       -0.61781649649467
C            7.02287740151605       -0.21887054397392        0.04360064913698
O            8.29843742384547       -0.22186740478253        0.52825811307233
C            9.09204039806115        0.91982311872828        0.33568973356796
C            6.29697827016983       -1.41357321615436        0.25130099907537
O            6.97783414727946       -2.39430167877776        0.91012243898492
C            6.34096035851599       -3.62430243654646        1.13700833741574
C            4.99854329040411       -1.51143179658109       -0.21123198073110
C           -0.04201696624587       -1.30495851600257       -0.72929763870648
C           -3.89092743216227        3.11807141872243        0.55425653155908
C           -4.59886306819404        2.85569922342836        1.88144688602475
C           -3.43160288463052        4.57700615305925        0.50569303518659
H           -4.58321295135873        0.90339970848353       -1.29911665073787
H           -6.72548890837460        0.33010458788803       -1.86774505327711
H           -7.06143544238907       -1.11271586360514       -2.84730614503265
H           -5.51694711068443       -0.25824708938192       -3.04159973593088
H           -4.48774808337890       -3.91661634112393        2.41624676472943
H           -5.71254305465648       -4.80778753326974        1.39948386835323
H           -4.04456582380977       -5.41394865517755        1.49154207681048
H           -3.12996271236692       -2.15261070976163        2.23485610377543
H           -2.24642735329187        0.09474446557517        2.14498156237019
H           -2.95100740959732        2.57267202538154       -1.79973504565062
H           -1.51605318502576        3.25867891873258       -1.04717107937320
H           -1.82131572093660        0.28533097918245       -1.61735288243926
H           -1.14675634489635        1.45186615195978       -2.75753674230411
H           -0.72058713000093        1.65438520073706        0.98088347618734
H            0.68576933662997        1.99815937868236       -1.03455705597387
H            2.14072536361724       -0.68550670757018        0.65247748478070
H            2.31250127089778        0.96472984284034        0.03399189013420
H            2.81233465087988        0.04899103481360       -2.23690420771549
H            2.72225354219715       -1.59475536677004       -1.58267844754336
H            4.65652306455938        1.54814825736295       -1.59375521373621
H            6.94857664127031        1.75412482273191       -0.78906386115973
H            8.66922200283277        1.79845443685188        0.83514335558414
H            9.23383675550513        1.14125076547724       -0.72781501957125
H           10.05558005494287        0.68175172049461        0.78407189914533
H            7.07625911574288       -4.24081648615831        1.65238521883734
H            5.45564626460287       -3.51291686559725        1.77282998407754
H            6.05484527143148       -4.11312913734289        0.19926162011226
H            4.43609911709300       -2.42050547047600       -0.06230663471329
H           -0.20323958474573       -1.60004244391586       -1.77281730049497
H           -1.01371389886161       -1.25705390762381       -0.22948915925191
H            0.55611222687638       -2.07362556469573       -0.24409600853917
H           -4.62028107455180        2.97452097452119       -0.25255300132021
H           -3.90588737436085        3.01099308434680        2.70144466398276
H           -4.97620489054002        1.83698663782384        1.92470025628846
H           -5.43693672047528        3.54018215261626        1.99342387824780
H           -2.68869209010811        4.76183986663308        1.27486807717669
H           -3.01500137464375        4.84092108227945       -0.46293349308550
H           -4.28475384435232        5.22746859005355        0.68944997953601
H           -0.80000923183907        2.99508867888994        2.86685915431033
