  25
        -42.15340092
 C          3.8463171741       -0.1211596343        0.3047477466
 N          3.3551552918       -1.1651396272       -0.2525431934
 C          2.4263591204       -2.0455832872       -0.2164064197
 N          1.0811344308       -1.8717491141       -0.0276075250
 C          0.3087199043       -0.7420755932        0.0388133410
 C          0.7797223626        0.5668601290        0.0676163250
 C         -0.1001633963        1.6335422931        0.0407451327
 O          0.3870158293        2.8685730278        0.0984270175
 N         -1.4562555682        1.4218246332       -0.0740788566
 C         -2.3604710409        2.4110941847       -0.2460913756
 C         -1.9768587270        0.0976152710        0.0057553708
 O         -3.1675924545       -0.0878994546        0.0075729421
 N         -1.0613387979       -0.9351034836        0.0724863063
 C         -1.6371134747       -2.2696603854        0.1412775962
 H          3.7221692085        0.0966278324        1.3638657577
 H          4.5289251986        0.4862607312       -0.2748177655
 H          1.8251078490        0.8036288046        0.1163918628
 H          2.6945233188       -3.0572232578       -0.4950135364
 H         -0.2948195392        3.5411970841        0.2495454142
 H         -2.0575437768        3.4168815887       -0.4564472210
 H         -3.3940125993        2.1279279230       -0.2775459916
 H         -1.2440833699       -2.8183742730        0.9988434824
 H         -1.4723703824       -2.8204948487       -0.7872029529
 H         -2.7135502094       -2.1531549479        0.2737401780
 H          0.5496493687       -2.7308387721       -0.1047754866
